@<TRIPOS>MOLECULE
POL
  628   647     1     0     0
SMALL
USER_CHARGES


@<TRIPOS>ATOM
      1 C1         -1.6718    2.3453   -1.9645 c3          1 POL        -0.072117
      2 C2         -2.2669    0.9681   -2.3315 c3          1 POL        -0.036117
      3 C3         -3.7168    1.1238   -2.7916 ca          1 POL        -0.011017
      4 C4         -4.0564    0.8455   -4.1220 ca          1 POL        -0.120217
      5 C5         -5.3474    1.0975   -4.6035 ca          1 POL        -0.098217
      6 C6         -6.3355    1.6353   -3.7656 ca          1 POL        -0.188017
      7 C7         -7.7003    1.9966   -4.3082 c3          1 POL         0.188383
      8 N1         -8.8002    0.9218   -4.2387 n4          1 POL        -0.606800
      9 C8        -10.0747    1.5127   -4.8504 c3          1 POL         0.090383
     10 C9         -9.0968    0.5288   -2.8011 c3          1 POL         0.090383
     11 C10        -8.4153   -0.3144   -5.0338 c3          1 POL         0.090383
     12 C11        -6.0037    1.8885   -2.4269 ca          1 POL        -0.098217
     13 C12        -4.7126    1.6353   -1.9468 ca          1 POL        -0.120217
     14 C13        -1.7941    3.3960   -3.0678 c3          1 POL        -0.094817
     15 H1         -2.1261    2.7332   -1.0452 hc          1 POL         0.046983
     16 H2         -0.6039    2.2385   -1.7741 hc          1 POL         0.046983
     17 H3         -1.6912    0.5883   -3.1865 hc          1 POL         0.069983
     18 H4         -3.3056    0.4624   -4.8110 ha          1 POL         0.160783
     19 H5         -5.5538    0.9053   -5.6553 ha          1 POL         0.137283
     20 H6         -7.6086    2.2862   -5.3634 hx          1 POL         0.100983
     21 H7         -8.0844    2.8762   -3.7749 hx          1 POL         0.100983
     22 H8        -10.8644    0.7565   -4.8067 hx          1 POL         0.102761
     23 H9         -9.8653    1.7851   -5.8890 hx          1 POL         0.102761
     24 H10       -10.3594    2.3951   -4.2699 hx          1 POL         0.102761
     25 H11        -8.2233    0.0222   -2.3828 hx          1 POL         0.102761
     26 H12        -9.3304    1.4342   -2.2336 hx          1 POL         0.102761
     27 H13        -9.9533   -0.1525   -2.7979 hx          1 POL         0.102761
     28 H14        -9.2674   -1.0012   -5.0404 hx          1 POL         0.102761
     29 H15        -7.5597   -0.7954   -4.5526 hx          1 POL         0.102761
     30 H16        -8.1665   -0.0087   -6.0542 hx          1 POL         0.102761
     31 H17        -6.7311    2.3275   -1.7456 ha          1 POL         0.137283
     32 H18        -4.4830    1.8815   -0.9114 ha          1 POL         0.160783
     33 C14        -2.1660   -0.1033   -1.2056 c3          1 POL        -0.072117
     34 C15        -0.7600   -0.5043   -0.6486 c3          1 POL        -0.036117
     35 C16         0.2021   -0.9153   -1.7642 ca          1 POL        -0.011017
     36 C17         0.0998   -2.1996   -2.3226 ca          1 POL        -0.120217
     37 C18         0.9791   -2.6306   -3.3246 ca          1 POL        -0.098217
     38 C19         1.9855   -1.7842   -3.8083 ca          1 POL        -0.188017
     39 C20         2.9704   -2.2605   -4.8531 c3          1 POL         0.188383
     40 N2          2.6023   -2.0346   -6.3308 n4          1 POL        -0.606800
     41 C21         3.7479   -2.5785   -7.1915 c3          1 POL         0.090383
     42 C22         2.4330   -0.5556   -6.6406 c3          1 POL         0.090383
     43 C23         1.3304   -2.7785   -6.7037 c3          1 POL         0.090383
     44 C24         2.0796   -0.4950   -3.2663 ca          1 POL        -0.098217
     45 C25         1.1984   -0.0670   -2.2635 ca          1 POL        -0.120217
     46 H19        -2.7938    0.1874   -0.3519 hc          1 POL         0.046983
     47 H20        -2.6344   -1.0243   -1.5938 hc          1 POL         0.046983
     48 H21        -0.9510   -1.4286   -0.0773 hc          1 POL         0.069983
     49 H22        -0.6641   -2.8892   -1.9644 ha          1 POL         0.160783
     50 H23         0.8756   -3.6469   -3.7020 ha          1 POL         0.137283
     51 H24         3.1401   -3.3384   -4.7311 hx          1 POL         0.100983
     52 H25         3.9394   -1.7702   -4.6910 hx          1 POL         0.100983
     53 H26         3.8643   -3.6450   -6.9774 hx          1 POL         0.102761
     54 H27         4.6609   -2.0326   -6.9360 hx          1 POL         0.102761
     55 H28         3.4947   -2.4259   -8.2449 hx          1 POL         0.102761
     56 H29         1.5596   -0.1770   -6.1032 hx          1 POL         0.102761
     57 H30         2.2785   -0.4431   -7.7182 hx          1 POL         0.102761
     58 H31         3.3399   -0.0288   -6.3300 hx          1 POL         0.102761
     59 H32         0.4886   -2.3372   -6.1639 hx          1 POL         0.102761
     60 H33         1.1712   -2.6741   -7.7815 hx          1 POL         0.102761
     61 H34         1.4530   -3.8326   -6.4385 hx          1 POL         0.102761
     62 H35         2.8553    0.1936   -3.5992 ha          1 POL         0.137283
     63 H36         1.3226    0.9409   -1.8744 ha          1 POL         0.160783
     64 C26        -0.1969    0.5014    0.4152 c3          1 POL        -0.072117
     65 C27         1.0089   -0.0253    1.2573 c3          1 POL        -0.036117
     66 C28         0.6071   -1.1383    2.2093 ca          1 POL        -0.011017
     67 C29         1.2429   -2.3792    2.1007 ca          1 POL        -0.120217
     68 C30         1.0081   -3.3919    3.0390 ca          1 POL        -0.098217
     69 C31         0.1153   -3.1937    4.1022 ca          1 POL        -0.188017
     70 C32        -0.0622   -4.2477    5.1728 c3          1 POL         0.188383
     71 N3         -1.1697   -5.2956    4.9637 n4          1 POL        -0.606800
     72 C33        -1.1555   -6.2424    6.1689 c3          1 POL         0.090383
     73 C34        -2.5393   -4.6426    4.8842 c3          1 POL         0.090383
     74 C35        -0.9229   -6.1155    3.7086 c3          1 POL         0.090383
     75 C36        -0.5593   -1.9666    4.1813 ca          1 POL        -0.098217
     76 C37        -0.3231   -0.9544    3.2423 ca          1 POL        -0.120217
     77 H37         0.1237    1.4260   -0.0679 hc          1 POL         0.046983
     78 H38        -1.0124    0.7886    1.0908 hc          1 POL         0.046983
     79 H39         1.7340   -0.4233    0.5409 hc          1 POL         0.069983
     80 H40         1.9706   -2.5555    1.3093 ha          1 POL         0.160783
     81 H41         1.5694   -4.3206    2.9474 ha          1 POL         0.137283
     82 H42         0.8773   -4.8022    5.2982 hx          1 POL         0.100983
     83 H43        -0.2674   -3.7594    6.1346 hx          1 POL         0.100983
     84 H44        -1.3439   -5.6545    7.0722 hx          1 POL         0.102761
     85 H45        -0.1738   -6.7226    6.2194 hx          1 POL         0.102761
     86 H46        -1.9402   -6.9923    6.0312 hx          1 POL         0.102761
     87 H47        -3.2972   -5.4311    4.8424 hx          1 POL         0.102761
     88 H48        -2.6832   -4.0250    5.7755 hx          1 POL         0.102761
     89 H49        -2.5919   -4.0348    3.9772 hx          1 POL         0.102761
     90 H50        -1.6731   -6.9110    3.6613 hx          1 POL         0.102761
     91 H51         0.0818   -6.5445    3.7645 hx          1 POL         0.102761
     92 H52        -1.0204   -5.4665    2.8343 hx          1 POL         0.102761
     93 H53        -1.2477   -1.7607    4.9999 ha          1 POL         0.137283
     94 H54        -0.8377   -0.0020    3.3605 ha          1 POL         0.160783
     95 C38         1.7443    1.1372    2.0031 c3          1 POL        -0.072117
     96 C39         2.9571    0.7612    2.9499 c3          1 POL        -0.036117
     97 C40         3.5692    2.0285    3.4881 ca          1 POL        -0.011017
     98 C41         4.6140    2.7071    2.8362 ca          1 POL        -0.120217
     99 C42         5.3653    3.6547    3.5169 ca          1 POL        -0.098217
    100 C43         4.9503    4.0525    4.7846 ca          1 POL        -0.188017
    101 C44         5.7237    5.1000    5.5537 c3          1 POL         0.188383
    102 N4          5.3457    6.5742    5.3200 n4          1 POL        -0.606800
    103 C45         6.2568    7.4384    6.1969 c3          1 POL         0.090383
    104 C46         5.5567    6.9742    3.8690 c3          1 POL         0.090383
    105 C47         3.9031    6.8426    5.7153 c3          1 POL         0.090383
    106 C48         3.8074    3.4822    5.3501 ca          1 POL        -0.098217
    107 C49         3.1214    2.4724    4.7235 ca          1 POL        -0.120217
    108 H55         1.0034    1.6988    2.5899 hc          1 POL         0.046983
    109 H56         2.1071    1.8399    1.2395 hc          1 POL         0.046983
    110 H57         2.5431    0.1965    3.8028 hc          1 POL         0.069983
    111 H58         4.9356    2.4164    1.8401 ha          1 POL         0.160783
    112 H59         6.3040    4.0110    3.0861 ha          1 POL         0.137283
    113 H60         6.7932    5.0078    5.3225 hx          1 POL         0.100983
    114 H61         5.6192    4.9143    6.6307 hx          1 POL         0.100983
    115 H62         6.0953    7.1602    7.2426 hx          1 POL         0.102761
    116 H63         7.2947    7.2536    5.9045 hx          1 POL         0.102761
    117 H64         5.9976    8.4895    6.0378 hx          1 POL         0.102761
    118 H65         5.3793    8.0503    3.7769 hx          1 POL         0.102761
    119 H66         6.5863    6.7341    3.5878 hx          1 POL         0.102761
    120 H67         4.8453    6.4302    3.2422 hx          1 POL         0.102761
    121 H68         3.2404    6.3024    5.0343 hx          1 POL         0.102761
    122 H69         3.7160    7.9179    5.6344 hx          1 POL         0.102761
    123 H70         3.7571    6.5089    6.7467 hx          1 POL         0.102761
    124 H71         3.4233    3.7712    6.3040 ha          1 POL         0.137283
    125 H72         2.2640    2.0148    5.2149 ha          1 POL         0.160783
    126 C50         4.0635   -0.1075    2.3036 c3          1 POL        -0.072117
    127 C51         5.3592   -0.6900    3.1068 c3          1 POL        -0.036117
    128 C52         5.6612   -2.0148    2.3619 ca          1 POL        -0.011017
    129 C53         5.4928   -2.0357    0.9618 ca          1 POL        -0.120217
    130 C54         5.2445   -3.2172    0.2904 ca          1 POL        -0.098217
    131 C55         5.4009   -4.4301    0.9445 ca          1 POL        -0.188017
    132 C56         5.1291   -5.7297    0.2131 c3          1 POL         0.188383
    133 N5          6.2741   -6.3490   -0.6031 n4          1 POL        -0.606800
    134 C57         7.4023   -6.7303    0.3204 c3          1 POL         0.090383
    135 C58         6.7179   -5.4138   -1.7232 c3          1 POL         0.090383
    136 C59         5.7468   -7.6383   -1.2454 c3          1 POL         0.090383
    137 C60         5.8006   -4.4322    2.2901 ca          1 POL        -0.098217
    138 C61         5.9012   -3.2272    3.0112 ca          1 POL        -0.120217
    139 H73         3.5074   -0.9784    1.9510 hc          1 POL         0.046983
    140 H74         4.4142    0.4037    1.3984 hc          1 POL         0.046983
    141 H75         5.0572   -0.8762    4.1580 hc          1 POL         0.069983
    142 H76         5.3721   -1.1152    0.3926 ha          1 POL         0.160783
    143 H77         4.8364   -3.1422   -0.7114 ha          1 POL         0.137283
    144 H78         4.2829   -5.5865   -0.4727 hx          1 POL         0.100983
    145 H79         4.8152   -6.4930    0.9365 hx          1 POL         0.100983
    146 H80         8.1288   -7.3243   -0.2404 hx          1 POL         0.102761
    147 H81         7.8658   -5.8199    0.7057 hx          1 POL         0.102761
    148 H82         7.0019   -7.3312    1.1432 hx          1 POL         0.102761
    149 H83         7.4286   -5.9470   -2.3625 hx          1 POL         0.102761
    150 H84         5.8385   -5.1180   -2.3017 hx          1 POL         0.102761
    151 H85         7.2040   -4.5394   -1.2822 hx          1 POL         0.102761
    152 H86         4.9280   -7.3835   -1.9256 hx          1 POL         0.102761
    153 H87         5.3930   -8.2971   -0.4465 hx          1 POL         0.102761
    154 H88         6.5666   -8.1127   -1.7905 hx          1 POL         0.102761
    155 H89         5.9809   -5.3707    2.8162 ha          1 POL         0.137283
    156 H90         6.1445   -3.2825    4.0690 ha          1 POL         0.160783
    157 C62         6.6534    0.2075    3.0535 c3          1 POL        -0.072117
    158 C63         7.9503   -0.1937    3.8425 c3          1 POL        -0.036117
    159 C64         7.7516   -0.2617    5.3624 ca          1 POL        -0.011017
    160 C65         7.1762    0.8025    6.0733 ca          1 POL        -0.120217
    161 C66         6.9999    0.7318    7.4607 ca          1 POL        -0.098217
    162 C67         7.3969   -0.4035    8.1809 ca          1 POL        -0.188017
    163 C68         7.2593   -0.4489    9.6878 c3          1 POL         0.188383
    164 N6          5.9535   -1.0243   10.2667 n4          1 POL        -0.606800
    165 C69         6.0248   -0.9145   11.7949 c3          1 POL         0.090383
    166 C70         5.7852   -2.4912    9.9041 c3          1 POL         0.090383
    167 C71         4.7406   -0.2412    9.7882 c3          1 POL         0.090383
    168 C72         7.9707   -1.4696    7.4720 ca          1 POL        -0.098217
    169 C73         8.1450   -1.3990    6.0824 ca          1 POL        -0.120217
    170 H91         6.9204    0.3063    1.9977 hc          1 POL         0.046983
    171 H92         6.4022    1.2033    3.3992 hc          1 POL         0.046983
    172 H93         8.3059   -1.1796    3.5109 hc          1 POL         0.069983
    173 H94         6.8759    1.7131    5.5590 ha          1 POL         0.160783
    174 H95         6.5728    1.5943    7.9695 ha          1 POL         0.137283
    175 H96         7.3614    0.5678   10.0912 hx          1 POL         0.100983
    176 H97         8.0820   -1.0394   10.1132 hx          1 POL         0.100983
    177 H98         6.1420    0.1406   12.0616 hx          1 POL         0.102761
    178 H99         5.0984   -1.3147   12.2163 hx          1 POL         0.102761
    179 H100        6.8830   -1.4977   12.1420 hx          1 POL         0.102761
    180 H101        5.6470   -2.5772    8.8236 hx          1 POL         0.102761
    181 H102        4.9015   -2.8782   10.4214 hx          1 POL         0.102761
    182 H103        6.6796   -3.0321   10.2245 hx          1 POL         0.102761
    183 H104        4.6200   -0.3952    8.7132 hx          1 POL         0.102761
    184 H105        4.8978    0.8167   10.0149 hx          1 POL         0.102761
    185 H106        3.8582   -0.6155   10.3144 hx          1 POL         0.102761
    186 H107        8.3187   -2.3606    7.9936 ha          1 POL         0.137283
    187 H108        8.6127   -2.2392    5.5704 ha          1 POL         0.160783
    188 C74         9.1230    0.8231    3.6131 c3          1 POL        -0.072117
    189 C75         9.7849    0.9272    2.2091 c3          1 POL        -0.036117
    190 C76         9.1328    2.0179    1.3520 ca          1 POL        -0.011017
    191 C77         9.3270    3.3725    1.7013 ca          1 POL        -0.120217
    192 C78         8.8381    4.4135    0.9012 ca          1 POL        -0.098217
    193 C79         8.1387    4.1399   -0.2802 ca          1 POL        -0.188017
    194 C80         7.6979    5.2549   -1.2036 c3          1 POL         0.188383
    195 N7          6.3214    5.8943   -0.9501 n4          1 POL        -0.606800
    196 C81         5.2143    4.8540   -0.9665 c3          1 POL         0.090383
    197 C82         6.2958    6.6436    0.3735 c3          1 POL         0.090383
    198 C83         6.0568    6.9033   -2.0752 c3          1 POL         0.090383
    199 C84         7.9183    2.7968   -0.6188 ca          1 POL        -0.098217
    200 C85         8.4122    1.7569    0.1827 ca          1 POL        -0.120217
    201 H109        8.8013    1.8200    3.9439 hc          1 POL         0.046983
    202 H110        9.9299    0.5519    4.3102 hc          1 POL         0.046983
    203 H111       10.7955    1.3389    2.3677 hc          1 POL         0.069983
    204 H112        9.9001    3.6268    2.5928 ha          1 POL         0.160783
    205 H113        9.0545    5.4381    1.1977 ha          1 POL         0.137283
    206 H114        8.4359    6.0675   -1.1771 hx          1 POL         0.100983
    207 H115        7.6847    4.8806   -2.2356 hx          1 POL         0.100983
    208 H116        4.2502    5.3706   -0.9098 hx          1 POL         0.102761
    209 H117        5.3315    4.1957   -0.0989 hx          1 POL         0.102761
    210 H118        5.2862    4.2846   -1.8997 hx          1 POL         0.102761
    211 H119        6.4023    5.9268    1.1918 hx          1 POL         0.102761
    212 H120        7.1181    7.3662    0.3809 hx          1 POL         0.102761
    213 H121        5.3362    7.1615    0.4578 hx          1 POL         0.102761
    214 H122        6.8579    7.6486   -2.0660 hx          1 POL         0.102761
    215 H123        6.0441    6.3633   -3.0275 hx          1 POL         0.102761
    216 H124        5.0888    7.3806   -1.8950 hx          1 POL         0.102761
    217 H125        7.3967    2.5342   -1.5377 ha          1 POL         0.137283
    218 H126        8.2390    0.7351   -0.1456 ha          1 POL         0.160783
    219 C86        10.0334   -0.4629    1.5442 c3          1 POL        -0.072117
    220 C87        11.0871   -1.3442    2.3083 c3          1 POL        -0.036117
    221 C88        12.4766   -0.8102    2.1050 ca          1 POL        -0.011017
    222 C89        13.1297   -0.2377    3.1927 ca          1 POL        -0.120217
    223 C90        14.4900    0.0198    3.1223 ca          1 POL        -0.098217
    224 C91        15.2232   -0.3878    2.0066 ca          1 POL        -0.188017
    225 C92        16.7124   -0.2852    1.9448 c3          1 POL         0.188383
    226 N8         17.2891    1.0720    1.7225 n4          1 POL        -0.606800
    227 C93        16.9639    2.1468    2.7519 c3          1 POL         0.090383
    228 C94        18.8036    0.9460    1.6387 c3          1 POL         0.090383
    229 C95        16.7508    1.5504    0.3981 c3          1 POL         0.090383
    230 C96        14.5443   -0.8772    0.8931 ca          1 POL        -0.098217
    231 C97        13.1608   -0.9802    0.8987 ca          1 POL        -0.120217
    232 H127        9.0829   -1.0047    1.4589 hc          1 POL         0.046983
    233 H128       10.3746   -0.3125    0.5077 hc          1 POL         0.046983
    234 H129       10.8492   -1.3153    3.3787 hc          1 POL         0.069983
    235 H130       12.5790   -0.0525    4.1138 ha          1 POL         0.160783
    236 H131       14.9690    0.4881    3.9744 ha          1 POL         0.137283
    237 H132       17.1002   -0.9457    1.1557 hx          1 POL         0.100983
    238 H133       17.1409   -0.6639    2.8591 hx          1 POL         0.100983
    239 H134       17.5049    3.0620    2.4903 hx          1 POL         0.102761
    240 H135       15.8900    2.3471    2.7422 hx          1 POL         0.102761
    241 H136       17.2860    1.7892    3.7323 hx          1 POL         0.102761
    242 H137       19.1836    0.5455    2.5831 hx          1 POL         0.102761
    243 H138       19.0613    0.2842    0.8087 hx          1 POL         0.102761
    244 H139       19.2010    1.9500    1.4616 hx          1 POL         0.102761
    245 H140       16.9682    0.8085   -0.3757 hx          1 POL         0.102761
    246 H141       15.6742    1.7217    0.4845 hx          1 POL         0.102761
    247 H142       17.2534    2.4963    0.1695 hx          1 POL         0.102761
    248 H143       15.0668   -1.0958   -0.0323 ha          1 POL         0.137283
    249 H144       12.6496   -1.3139   -0.0029 ha          1 POL         0.160783
    250 C98        10.9990   -2.8468    1.9192 c3          1 POL        -0.072117
    251 C99        12.2754   -3.8287    1.8909 c3          1 POL        -0.036117
    252 C100       12.1398   -4.5752    0.5439 ca          1 POL        -0.011017
    253 C101       10.8933   -5.1737    0.2995 ca          1 POL        -0.120217
    254 C102       10.5146   -5.5424   -0.9879 ca          1 POL        -0.098217
    255 C103       11.3730   -5.3539   -2.0730 ca          1 POL        -0.188017
    256 C104       10.8747   -5.5801   -3.4790 c3          1 POL         0.188383
    257 N9         11.0523   -6.9911   -4.0657 n4          1 POL        -0.606800
    258 C105       12.5203   -7.3710   -4.1469 c3          1 POL         0.090383
    259 C106       10.4750   -6.9837   -5.4851 c3          1 POL         0.090383
    260 C107       10.2998   -8.0247   -3.2460 c3          1 POL         0.090383
    261 C108       12.6666   -4.8820   -1.8267 ca          1 POL        -0.098217
    262 C109       13.0589   -4.5061   -0.5205 ca          1 POL        -0.120217
    263 H145       10.2183   -3.3039    2.5426 hc          1 POL         0.046983
    264 H146       10.5632   -2.8122    0.9098 hc          1 POL         0.046983
    265 H147       13.2189   -3.2850    1.8750 hc          1 POL         0.069983
    266 H148       10.1771   -5.1781    1.1243 ha          1 POL         0.160783
    267 H149        9.5129   -5.8998   -1.1680 ha          1 POL         0.137283
    268 H150       11.3818   -4.8869   -4.1633 hx          1 POL         0.100983
    269 H151        9.8032   -5.3472   -3.5374 hx          1 POL         0.100983
    270 H152       13.0516   -6.5934   -4.7035 hx          1 POL         0.102761
    271 H153       12.6012   -8.3312   -4.6655 hx          1 POL         0.102761
    272 H154       12.9204   -7.4664   -3.1342 hx          1 POL         0.102761
    273 H155       11.0204   -6.2424   -6.0765 hx          1 POL         0.102761
    274 H156        9.4140   -6.7243   -5.4255 hx          1 POL         0.102761
    275 H157       10.6000   -7.9818   -5.9159 hx          1 POL         0.102761
    276 H158       10.7610   -8.1005   -2.2578 hx          1 POL         0.102761
    277 H159       10.3683   -8.9895   -3.7584 hx          1 POL         0.102761
    278 H160        9.2546   -7.7121   -3.1646 hx          1 POL         0.102761
    279 H161       13.3666   -4.7327   -2.6474 ha          1 POL         0.137283
    280 H162       14.0700   -4.1079   -0.3973 ha          1 POL         0.160783
    281 C110       12.3744   -4.8779    3.0654 c3          1 POL        -0.072117
    282 C111       12.5536   -4.2857    4.4909 c3          1 POL        -0.036117
    283 C112       13.8560   -3.5698    4.8024 ca          1 POL        -0.011017
    284 C113       15.1087   -4.0201    4.3664 ca          1 POL        -0.120217
    285 C114       16.2634   -3.2578    4.5589 ca          1 POL        -0.098217
    286 C115       16.1952   -2.0289    5.2230 ca          1 POL        -0.188017
    287 C116       17.3924   -1.1028    5.2353 c3          1 POL         0.188383
    288 N10        18.2304   -1.0476    6.4686 n4          1 POL        -0.606800
    289 C117       17.4082   -0.5308    7.6295 c3          1 POL         0.090383
    290 C118       19.4099   -0.0764    6.2413 c3          1 POL         0.090383
    291 C119       18.7796   -2.4197    6.7610 c3          1 POL         0.090383
    292 C120       14.9708   -1.6467    5.7895 ca          1 POL        -0.098217
    293 C121       13.8187   -2.4088    5.5829 ca          1 POL        -0.120217
    294 H163       13.1944   -5.5709    2.8428 hc          1 POL         0.046983
    295 H164       11.4620   -5.4879    3.0639 hc          1 POL         0.046983
    296 H165       11.7751   -3.5261    4.4806 hc          1 POL         0.069983
    297 H166       15.2040   -4.9913    3.8858 ha          1 POL         0.160783
    298 H167       17.2056   -3.6190    4.1486 ha          1 POL         0.137283
    299 H168       17.0583   -0.0803    5.0297 hx          1 POL         0.100983
    300 H169       18.0807   -1.3954    4.4339 hx          1 POL         0.100983
    301 H170       18.0661   -0.4374    8.4821 hx          1 POL         0.102761
    302 H171       16.6176   -1.2591    7.8353 hx          1 POL         0.102761
    303 H172       16.9784    0.4385    7.3530 hx          1 POL         0.102761
    304 H173       20.0070   -0.4429    5.3977 hx          1 POL         0.102761
    305 H174       20.0017   -0.0634    7.1536 hx          1 POL         0.102761
    306 H175       19.0090    0.9181    6.0216 hx          1 POL         0.102761
    307 H176       17.9403   -3.0878    6.9760 hx          1 POL         0.102761
    308 H177       19.4313   -2.3402    7.6219 hx          1 POL         0.102761
    309 H178       19.3345   -2.7743    5.8822 hx          1 POL         0.102761
    310 H179       14.8658   -0.7011    6.3203 ha          1 POL         0.137283
    311 H180       12.8726   -2.0432    5.9802 ha          1 POL         0.160783
    312 C122       12.0896   -5.1955    5.6714 c3          1 POL        -0.072117
    313 C123       13.1054   -6.1110    6.4199 c3          1 POL        -0.036117
    314 C124       12.4525   -6.5432    7.7448 ca          1 POL        -0.011017
    315 C125       11.2971   -7.3468    7.8004 ca          1 POL        -0.120217
    316 C126       10.7170   -7.6896    9.0276 ca          1 POL        -0.098217
    317 C127       11.2562   -7.2233   10.2306 ca          1 POL        -0.188017
    318 C128       10.6088   -7.5974   11.5434 c3          1 POL         0.188383
    319 N11         9.4071   -6.7317   12.0047 n4          1 POL        -0.606800
    320 C129        8.2104   -6.9039   11.0551 c3          1 POL         0.090383
    321 C130        8.9157   -7.2503   13.3688 c3          1 POL         0.090383
    322 C131        9.7479   -5.2622   12.0759 c3          1 POL         0.090383
    323 C132       12.4154   -6.4312   10.1793 ca          1 POL        -0.098217
    324 C133       12.9943   -6.0878    8.9507 ca          1 POL        -0.120217
    325 H181       11.6929   -4.5040    6.4345 hc          1 POL         0.046983
    326 H182       11.2135   -5.7763    5.3453 hc          1 POL         0.046983
    327 H183       13.9953   -5.5164    6.6472 hc          1 POL         0.069983
    328 H184       10.8358   -7.7140    6.8848 ha          1 POL         0.160783
    329 H185        9.8343   -8.3276    9.0222 ha          1 POL         0.137283
    330 H186       11.3835   -7.6482   12.2980 hx          1 POL         0.100983
    331 H187       10.1623   -8.5978   11.4733 hx          1 POL         0.100983
    332 H188        8.4614   -6.4633   10.0872 hx          1 POL         0.102761
    333 H189        7.9919   -7.9709   10.9548 hx          1 POL         0.102761
    334 H190        7.3522   -6.3756   11.4829 hx          1 POL         0.102761
    335 H191        8.0761   -6.6299   13.6958 hx          1 POL         0.102761
    336 H192        8.6044   -8.2925   13.2511 hx          1 POL         0.102761
    337 H193        9.7368   -7.1824   14.0807 hx          1 POL         0.102761
    338 H194       10.6622   -5.1371   12.6546 hx          1 POL         0.102761
    339 H195        8.9179   -4.7310   12.5517 hx          1 POL         0.102761
    340 H196        9.8963   -4.8808   11.0614 hx          1 POL         0.102761
    341 H197       12.8864   -6.0704   11.0927 ha          1 POL         0.137283
    342 H198       13.8851   -5.4614    8.9465 ha          1 POL         0.160783
    343 C134       13.5395   -7.3319    5.5984 c3          1 POL        -0.072117
    344 C135       14.9444   -7.9777    5.8741 c3          1 POL        -0.036117
    345 C136       14.9745   -9.3059    5.1621 ca          1 POL        -0.011017
    346 C137       14.0323  -10.3250    5.2025 ca          1 POL        -0.120217
    347 C138       14.3150  -11.5998    4.6652 ca          1 POL        -0.098217
    348 C139       15.5740  -11.9275    4.2259 ca          1 POL        -0.188017
    349 C140       15.9893  -13.2817    3.7222 c3          1 POL         0.188383
    350 N12        16.8610  -14.2277    4.5626 n4          1 POL        -0.606800
    351 C141       17.1224  -15.4960    3.7240 c3          1 POL         0.090383
    352 C142       16.1734  -14.6966    5.7941 c3          1 POL         0.090383
    353 C143       18.2004  -13.6087    4.9078 c3          1 POL         0.090383
    354 C144       16.3672  -10.8315    4.0365 ca          1 POL        -0.098217
    355 C145       16.0280   -9.5315    4.3312 ca          1 POL        -0.120217
    356 H199       13.5513   -7.0500    4.5378 hc          1 POL         0.046983
    357 H200       12.7479   -8.0831    5.6620 hc          1 POL         0.046983
    358 H201       15.6366   -7.3098    5.3484 hc          1 POL         0.069983
    359 H202       13.0551  -10.1394    5.6266 ha          1 POL         0.160783
    360 H203       13.5473  -12.3421    4.5594 ha          1 POL         0.137283
    361 H204       15.0805  -13.8357    3.4535 hx          1 POL         0.100983
    362 H205       16.5337  -13.0958    2.7871 hx          1 POL         0.100983
    363 H206       17.6422  -15.1996    2.8081 hx          1 POL         0.102761
    364 H207       16.1600  -15.9592    3.4876 hx          1 POL         0.102761
    365 H208       17.7421  -16.1817    4.3100 hx          1 POL         0.102761
    366 H209       16.1211  -13.8486    6.4658 hx          1 POL         0.102761
    367 H210       15.1799  -15.0717    5.5333 hx          1 POL         0.102761
    368 H211       16.7649  -15.4872    6.2678 hx          1 POL         0.102761
    369 H212       18.6789  -13.2741    3.9830 hx          1 POL         0.102761
    370 H213       18.8194  -14.3626    5.4037 hx          1 POL         0.102761
    371 H214       18.0326  -12.7674    5.5852 hx          1 POL         0.102761
    372 H215       17.3177  -10.8645    3.5841 ha          1 POL         0.137283
    373 H216       16.6947   -8.7248    4.0339 ha          1 POL         0.160783
    374 C146       15.5049   -8.0169    7.3434 c3          1 POL        -0.072117
    375 C147       16.9237   -8.5913    7.8408 c3          1 POL        -0.036117
    376 C148       18.1930   -8.2576    7.0257 ca          1 POL        -0.011017
    377 C149       19.0695   -7.2274    7.4239 ca          1 POL        -0.120217
    378 C150       20.1898   -6.8607    6.6444 ca          1 POL        -0.098217
    379 C151       20.4745   -7.5336    5.4473 ca          1 POL        -0.188017
    380 C152       21.5567   -7.0344    4.5164 c3          1 POL         0.188383
    381 N13        22.9750   -7.6018    4.7087 n4          1 POL        -0.606800
    382 C153       23.0003   -9.1060    4.4945 c3          1 POL         0.090383
    383 C154       23.8879   -6.9493    3.6661 c3          1 POL         0.090383
    384 C155       23.5160   -7.2765    6.0910 c3          1 POL         0.090383
    385 C156       19.6879   -8.6435    5.1066 ca          1 POL        -0.098217
    386 C157       18.5872   -9.0104    5.9078 ca          1 POL        -0.120217
    387 H217       14.7335   -8.4444    7.9753 hc          1 POL         0.046983
    388 H218       15.5480   -6.9584    7.6383 hc          1 POL         0.046983
    389 H219       17.0632   -8.0157    8.7700 hc          1 POL         0.069983
    390 H220       18.9169   -6.7000    8.3666 ha          1 POL         0.160783
    391 H221       20.7590   -5.9799    6.9379 ha          1 POL         0.137283
    392 H222       21.6389   -5.9430    4.6039 hx          1 POL         0.100983
    393 H223       21.2708   -7.2446    3.4773 hx          1 POL         0.100983
    394 H224       24.0403   -9.4443    4.5381 hx          1 POL         0.102761
    395 H225       22.4239   -9.5889    5.2880 hx          1 POL         0.102761
    396 H226       22.5709   -9.3255    3.5126 hx          1 POL         0.102761
    397 H227       23.5055   -7.1932    2.6704 hx          1 POL         0.102761
    398 H228       24.8998   -7.3458    3.7932 hx          1 POL         0.102761
    399 H229       23.8795   -5.8673    3.8280 hx          1 POL         0.102761
    400 H230       24.5588   -7.6048    6.1407 hx          1 POL         0.102761
    401 H231       23.4510   -6.1954    6.2451 hx          1 POL         0.102761
    402 H232       22.9266   -7.8123    6.8397 hx          1 POL         0.102761
    403 H233       19.8569   -9.1819    4.1752 ha          1 POL         0.137283
    404 H234       18.0160   -9.8937    5.6094 ha          1 POL         0.160783
    405 C158       17.0365  -10.0598    8.3810 c3          1 POL        -0.072117
    406 C159       16.0257  -10.5866    9.4637 c3          1 POL        -0.036117
    407 C160       14.7585  -11.1671    8.8499 ca          1 POL        -0.011017
    408 C161       14.8501  -12.4408    8.2974 ca          1 POL        -0.120217
    409 C162       13.8076  -12.9826    7.5565 ca          1 POL        -0.098217
    410 C163       12.6395  -12.2578    7.3279 ca          1 POL        -0.188017
    411 C164       11.6471  -12.7305    6.2802 c3          1 POL         0.188383
    412 N14        10.6895  -13.7745    6.7105 n4          1 POL        -0.606800
    413 C165        9.9249  -13.2303    7.8730 c3          1 POL         0.090383
    414 C166        9.7137  -14.1082    5.5686 c3          1 POL         0.090383
    415 C167       11.4190  -15.0526    7.0927 c3          1 POL         0.090383
    416 C168       12.4671  -11.0573    8.0252 ca          1 POL        -0.098217
    417 C169       13.5181  -10.5214    8.7804 ca          1 POL        -0.120217
    418 H235       17.0975  -10.7603    7.5390 hc          1 POL         0.046983
    419 H236       18.0474  -10.1471    8.8574 hc          1 POL         0.046983
    420 H237       16.5474  -11.4466    9.9019 hc          1 POL         0.069983
    421 H238       15.7749  -12.9926    8.4033 ha          1 POL         0.160783
    422 H239       13.9409  -13.9522    7.0932 ha          1 POL         0.137283
    423 H240       12.1612  -13.1798    5.4331 hx          1 POL         0.100983
    424 H241       11.0777  -11.8744    5.8939 hx          1 POL         0.100983
    425 H242       10.6111  -13.0717    8.7090 hx          1 POL         0.102761
    426 H243        9.4501  -12.2904    7.5765 hx          1 POL         0.102761
    427 H244        9.1658  -13.9667    8.1547 hx          1 POL         0.102761
    428 H245       10.2743  -14.5104    4.7195 hx          1 POL         0.102761
    429 H246        9.1900  -13.1905    5.2847 hx          1 POL         0.102761
    430 H247        9.0041  -14.8517    5.9438 hx          1 POL         0.102761
    431 H248       12.0604  -14.8456    7.9534 hx          1 POL         0.102761
    432 H249       12.0100  -15.4057    6.2426 hx          1 POL         0.102761
    433 H250       10.6655  -15.7975    7.3668 hx          1 POL         0.102761
    434 H251       11.5488  -10.4839    7.9229 ha          1 POL         0.137283
    435 H252       13.3601   -9.5591    9.2600 ha          1 POL         0.160783
    436 C170       15.7856   -9.5949   10.6161 c3          1 POL        -0.072117
    437 C171       15.0687  -10.1450   11.8752 c3          1 POL        -0.036117
    438 C172       14.4820   -9.0742   12.7780 ca          1 POL        -0.011017
    439 C173       13.3134   -9.3291   13.5005 ca          1 POL        -0.120217
    440 C174       12.7042   -8.3173   14.2523 ca          1 POL        -0.098217
    441 C175       13.2382   -7.0131   14.3084 ca          1 POL        -0.188017
    442 C176       12.4170   -5.8515   14.8607 c3          1 POL         0.188383
    443 N15        12.1923   -5.6257   16.3457 n4          1 POL        -0.606800
    444 C177       11.7155   -6.8684   17.0927 c3          1 POL         0.090383
    445 C178       13.4576   -5.0790   16.9487 c3          1 POL         0.090383
    446 C179       11.1095   -4.5387   16.5655 c3          1 POL         0.090383
    447 C180       14.4797   -6.7994   13.6752 ca          1 POL        -0.098217
    448 C181       15.0829   -7.8225   12.9347 ca          1 POL        -0.120217
    449 H253       15.2262   -8.7734   10.1862 hc          1 POL         0.046983
    450 H254       16.7325   -9.1988   10.9554 hc          1 POL         0.046983
    451 H255       14.1988  -10.7010   11.4746 hc          1 POL         0.069983
    452 H256       12.8584  -10.3203   13.4759 ha          1 POL         0.160783
    453 H257       11.7847   -8.5682   14.7788 ha          1 POL         0.137283
    454 H258       11.4166   -5.9539   14.4403 hx          1 POL         0.100983
    455 H259       12.8087   -4.9097   14.4526 hx          1 POL         0.100983
    456 H260       10.8064   -7.2283   16.6025 hx          1 POL         0.102761
    457 H261       12.5020   -7.6248   17.0529 hx          1 POL         0.102761
    458 H262       11.4982   -6.5979   18.1299 hx          1 POL         0.102761
    459 H263       13.7277   -4.1480   16.4401 hx          1 POL         0.102761
    460 H264       13.2673   -4.8847   18.0055 hx          1 POL         0.102761
    461 H265       14.2424   -5.8225   16.8057 hx          1 POL         0.102761
    462 H266       11.4264   -3.6330   16.0400 hx          1 POL         0.102761
    463 H267       10.1710   -4.9147   16.1473 hx          1 POL         0.102761
    464 H268       11.0069   -4.3511   17.6385 hx          1 POL         0.102761
    465 H269       15.0244   -5.8532   13.7812 ha          1 POL         0.137283
    466 H270       16.0740   -7.6476   12.5209 ha          1 POL         0.160783
    467 C182       15.9310  -11.1772   12.6220 c3          1 POL        -0.072117
    468 C183       16.7622  -10.8678   13.9041 c3          1 POL        -0.036117
    469 C184       17.1389  -12.2377   14.3835 ca          1 POL        -0.011017
    470 C185       16.6379  -12.6256   15.6263 ca          1 POL        -0.120217
    471 C186       17.3645  -13.5138   16.3776 ca          1 POL        -0.098217
    472 C187       18.4530  -14.1525   15.8029 ca          1 POL        -0.188017
    473 C188       19.4541  -14.8388   16.7113 c3          1 POL         0.188383
    474 N16        19.0911  -16.1850   17.2266 n4          1 POL        -0.606800
    475 C189       17.9101  -16.1735   18.2037 c3          1 POL         0.090383
    476 C190       20.2864  -16.7743   18.0145 c3          1 POL         0.090383
    477 C191       18.7937  -17.0636   16.0557 c3          1 POL         0.090383
    478 C192       18.6315  -14.0414   14.4030 ca          1 POL        -0.098217
    479 C193       18.0275  -13.0422   13.6758 ca          1 POL        -0.120217
    480 H271       16.5795  -11.6816   11.9005 hc          1 POL         0.046983
    481 H272       15.2067  -11.9579   12.9129 hc          1 POL         0.046983
    482 H273       16.1026  -10.4246   14.6544 hc          1 POL         0.069983
    483 H274       15.8195  -12.0881   16.1025 ha          1 POL         0.160783
    484 H275       17.1336  -13.5860   17.4341 ha          1 POL         0.137283
    485 H276       19.6860  -14.1930   17.5684 hx          1 POL         0.100983
    486 H277       20.3836  -14.9949   16.1637 hx          1 POL         0.100983
    487 H278       17.8216  -17.1644   18.6604 hx          1 POL         0.102761
    488 H279       18.1042  -15.4176   18.9700 hx          1 POL         0.102761
    489 H280       16.9968  -15.9495   17.6473 hx          1 POL         0.102761
    490 H281       21.1553  -16.8039   17.3500 hx          1 POL         0.102761
    491 H282       20.4805  -16.1243   18.8727 hx          1 POL         0.102761
    492 H283       20.0221  -17.7847   18.3401 hx          1 POL         0.102761
    493 H284       18.0597  -16.6373   15.3673 hx          1 POL         0.102761
    494 H285       19.7061  -17.3469   15.5283 hx          1 POL         0.102761
    495 H286       18.3645  -17.9430   16.5472 hx          1 POL         0.102761
    496 H287       19.3319  -14.6584   13.8640 ha          1 POL         0.137283
    497 H288       18.3359  -12.8942   12.6319 ha          1 POL         0.160783
    498 C194       18.0655   -9.9995   13.8374 c3          1 POL        -0.072117
    499 C195       19.0437   -9.7337   15.1114 c3          1 POL        -0.036117
    500 C196       18.3874   -9.1097   16.3659 ca          1 POL        -0.011017
    501 C197       17.5379   -9.8171   17.2227 ca          1 POL        -0.120217
    502 C198       17.0132   -9.2737   18.4092 ca          1 POL        -0.098217
    503 C199       17.3564   -7.9763   18.8018 ca          1 POL        -0.188017
    504 C200       16.7791   -7.3714   20.0779 c3          1 POL         0.188383
    505 N17        15.4857   -6.5258   19.8231 n4          1 POL        -0.606800
    506 C201       14.4361   -7.4094   19.2304 c3          1 POL         0.090383
    507 C202       15.8888   -5.2873   19.0482 c3          1 POL         0.090383
    508 C203       14.9118   -6.0071   21.1511 c3          1 POL         0.090383
    509 C204       18.2338   -7.2589   17.9726 ca          1 POL        -0.098217
    510 C205       18.7658   -7.8351   16.8032 ca          1 POL        -0.120217
    511 H289       18.6966  -10.3602   13.0155 hc          1 POL         0.046983
    512 H290       17.7285   -9.0047   13.5200 hc          1 POL         0.046983
    513 H291       19.6509   -8.9101   14.7001 hc          1 POL         0.069983
    514 H292       17.3319  -10.8546   17.0385 ha          1 POL         0.160783
    515 H293       16.3550   -9.8940   19.0301 ha          1 POL         0.137283
    516 H294       16.5093   -8.1607   20.7904 hx          1 POL         0.100983
    517 H295       17.5119   -6.7181   20.5668 hx          1 POL         0.100983
    518 H296       14.7051   -7.6514   18.2000 hx          1 POL         0.102761
    519 H297       14.3453   -8.3193   19.8322 hx          1 POL         0.102761
    520 H298       13.4859   -6.8745   19.2467 hx          1 POL         0.102761
    521 H299       16.0872   -5.5632   18.0117 hx          1 POL         0.102761
    522 H300       15.0767   -4.5590   19.0969 hx          1 POL         0.102761
    523 H301       16.7820   -4.8483   19.5051 hx          1 POL         0.102761
    524 H302       14.7714   -6.8505   21.8107 hx          1 POL         0.102761
    525 H303       13.9537   -5.4883   20.9718 hx          1 POL         0.102761
    526 H304       15.6712   -5.3292   21.4750 hx          1 POL         0.102761
    527 H305       18.5018   -6.2310   18.2121 ha          1 POL         0.137283
    528 H306       19.5402   -7.2805   16.2676 ha          1 POL         0.160783
    529 C206       20.1698  -10.7387   15.6096 c3          1 POL        -0.072117
    530 C207       21.0272  -11.5409   14.5716 c3          1 POL        -0.036117
    531 C208       21.9546  -10.5402   13.9548 ca          1 POL        -0.011017
    532 C209       21.8183  -10.2260   12.5956 ca          1 POL        -0.120217
    533 C210       22.5908   -9.2157   12.0080 ca          1 POL        -0.098217
    534 C211       23.5257   -8.4931   12.7639 ca          1 POL        -0.188017
    535 C212       24.3033   -7.3486   12.1516 c3          1 POL         0.188383
    536 N18        25.6730   -7.6723   11.5285 n4          1 POL        -0.606800
    537 C213       25.5386   -8.6586   10.3805 c3          1 POL         0.090383
    538 C214       26.2604   -6.3679   10.9773 c3          1 POL         0.090383
    539 C215       26.6357   -8.2280   12.5655 c3          1 POL         0.090383
    540 C216       23.6792   -8.8230   14.1180 ca          1 POL        -0.098217
    541 C217       22.9071   -9.8342   14.7033 ca          1 POL        -0.120217
    542 H307       19.7794  -11.3927   16.3750 hc          1 POL         0.046983
    543 H308       20.8486  -10.1316   16.2286 hc          1 POL         0.046983
    544 H309       20.3603  -11.9757   13.8287 hc          1 POL         0.069983
    545 H310       21.0819  -10.7466   11.9851 ha          1 POL         0.160783
    546 H311       22.4221   -8.9798   10.9582 ha          1 POL         0.137283
    547 H312       23.7010   -6.8791   11.3626 hx          1 POL         0.100983
    548 H313       24.4773   -6.5772   12.9134 hx          1 POL         0.100983
    549 H314       24.8146   -8.2615    9.6631 hx          1 POL         0.102761
    550 H315       25.2052   -9.6217   10.7760 hx          1 POL         0.102761
    551 H316       26.5183   -8.7748    9.9066 hx          1 POL         0.102761
    552 H317       26.3696   -5.6614   11.8054 hx          1 POL         0.102761
    553 H318       25.5751   -5.9730   10.2214 hx          1 POL         0.102761
    554 H319       27.2353   -6.5867   10.5313 hx          1 POL         0.102761
    555 H320       26.6884   -7.5264   13.4031 hx          1 POL         0.102761
    556 H321       27.6202   -8.3385   12.1003 hx          1 POL         0.102761
    557 H322       26.2754   -9.2049   12.8982 hx          1 POL         0.102761
    558 H323       24.3770   -8.2756   14.7502 ha          1 POL         0.137283
    559 H324       23.0374  -10.0404   15.7648 ha          1 POL         0.160783
    560 C218       21.8814  -12.7301   15.1153 c3          1 POL        -0.072117
    561 C219       22.6149  -13.6626   14.0591 c3          1 POL        -0.036117
    562 C220       21.7338  -14.5298   13.1420 ca          1 POL        -0.011017
    563 C221       21.5186  -14.1598   11.8096 ca          1 POL        -0.120217
    564 C222       20.7453  -14.9696   10.9668 ca          1 POL        -0.098217
    565 C223       20.0073  -16.0531   11.4481 ca          1 POL        -0.188017
    566 C224       19.0725  -16.8454   10.5779 c3          1 POL         0.188383
    567 N19        17.6602  -16.3064   10.2002 n4          1 POL        -0.606800
    568 C225       17.7880  -15.0055    9.4797 c3          1 POL         0.090383
    569 C226       16.7548  -16.1577   11.4180 c3          1 POL         0.090383
    570 C227       17.0080  -17.3627    9.2716 c3          1 POL         0.090383
    571 C228       20.3674  -16.5270   12.7109 ca          1 POL        -0.098217
    572 C229       21.2518  -15.7970   13.5262 ca          1 POL        -0.120217
    573 H325       21.2445  -13.3376   15.7416 hc          1 POL         0.046983
    574 H326       22.6343  -12.3290   15.8027 hc          1 POL         0.046983
    575 H327       23.1900  -13.0248   13.3819 hc          1 POL         0.069983
    576 H328       22.0588  -13.3120   11.3925 ha          1 POL         0.160783
    577 H329       20.8697  -14.8626    9.8980 ha          1 POL         0.137283
    578 H330       19.5913  -16.9856    9.6452 hx          1 POL         0.100983
    579 H331       18.9112  -17.8047   11.0469 hx          1 POL         0.100983
    580 H332       18.4857  -15.1211    8.6448 hx          1 POL         0.102761
    581 H333       16.8014  -14.7395    9.0978 hx          1 POL         0.102761
    582 H334       18.1314  -14.2331   10.1730 hx          1 POL         0.102761
    583 H335       16.7471  -17.1030   11.9685 hx          1 POL         0.102761
    584 H336       15.7441  -15.9061   11.0817 hx          1 POL         0.102761
    585 H337       17.1466  -15.3485   12.0397 hx          1 POL         0.102761
    586 H338       16.0095  -17.0161    8.9887 hx          1 POL         0.102761
    587 H339       16.9432  -18.3098    9.8154 hx          1 POL         0.102761
    588 H340       17.6399  -17.4697    8.3849 hx          1 POL         0.102761
    589 H341       20.0030  -17.4944   13.0638 ha          1 POL         0.137283
    590 H342       21.5323  -16.2321   14.4831 ha          1 POL         0.160783
    591 C230       23.6228  -14.6133   14.7581 c3          1 POL        -0.072117
    592 C231       24.8487  -13.9624   15.3990 c3          1 POL        -0.036117
    593 C232       25.7616  -15.0527   15.9295 ca          1 POL        -0.011017
    594 C233       26.6563  -15.7538   15.1093 ca          1 POL        -0.120217
    595 C234       27.5805  -16.6494   15.6659 ca          1 POL        -0.098217
    596 C235       27.5955  -16.8980   17.0469 ca          1 POL        -0.188017
    597 C236       28.6334  -17.8118   17.6595 c3          1 POL         0.188383
    598 N20        28.2740  -19.3032   17.7934 n4          1 POL        -0.606800
    599 C237       28.0083  -19.9310   16.4349 c3          1 POL         0.090383
    600 C238       27.0612  -19.5008   18.6884 c3          1 POL         0.090383
    601 C239       29.4674  -20.0200   18.4322 c3          1 POL         0.090383
    602 C240       26.6535  -16.2391   17.8513 ca          1 POL        -0.098217
    603 C241       25.7320  -15.3470   17.2941 ca          1 POL        -0.120217
    604 H343       23.1029  -15.1872   15.5378 hc          1 POL         0.046983
    605 H344       23.9774  -15.3511   14.0228 hc          1 POL         0.046983
    606 C242       25.5842  -13.0158   14.4576 c3          1 POL        -0.088817
    607 H345       24.5225  -13.3558   16.2533 hc          1 POL         0.069983
    608 H346       26.6858  -15.5674   14.0357 ha          1 POL         0.160783
    609 H347       28.3049  -17.1246   15.0061 ha          1 POL         0.137283
    610 H348       29.5582  -17.7619   17.0697 hx          1 POL         0.100983
    611 H349       28.8847  -17.4559   18.6674 hx          1 POL         0.100983
    612 H350       28.8718  -19.7438   15.7899 hx          1 POL         0.102761
    613 H351       27.8641  -21.0071   16.5729 hx          1 POL         0.102761
    614 H352       27.1025  -19.4909   16.0098 hx          1 POL         0.102761
    615 H353       26.9129  -20.5747   18.8386 hx          1 POL         0.102761
    616 H354       26.1826  -19.0743   18.1973 hx          1 POL         0.102761
    617 H355       27.2507  -19.0065   19.6457 hx          1 POL         0.102761
    618 H356       30.3376  -19.8891   17.7821 hx          1 POL         0.102761
    619 H357       29.2227  -21.0818   18.5322 hx          1 POL         0.102761
    620 H358       29.6508  -19.5769   19.4155 hx          1 POL         0.102761
    621 H359       26.6406  -16.3866   18.9303 ha          1 POL         0.137283
    622 H360       25.0276  -14.8345   17.9462 ha          1 POL         0.160783
    623 H361       -1.3818    3.0258   -4.0123 hc          1 POL         0.045650
    624 H362       -2.8333    3.6956   -3.2348 hc          1 POL         0.045650
    625 H363       -1.2372    4.2965   -2.7879 hc          1 POL         0.045650
    626 H364       26.5235  -12.7034   14.9116 hc          1 POL         0.045650
    627 H365       25.8023  -13.4734   13.4871 hc          1 POL         0.045650
    628 H366       24.9914  -12.1177   14.2795 hc          1 POL         0.045650
@<TRIPOS>BOND
     1     1     2 1   
     2     2     3 1   
     3     3     4 ar  
     4     4     5 ar  
     5     5     6 ar  
     6     6     7 1   
     7     7     8 1   
     8     8     9 1   
     9     8    10 1   
    10     8    11 1   
    11     6    12 ar  
    12    12    13 ar  
    13    13     3 ar  
    14     1    14 1   
    15     1    15 1   
    16     1    16 1   
    17     2    17 1   
    18     4    18 1   
    19     5    19 1   
    20     7    20 1   
    21     7    21 1   
    22     9    22 1   
    23     9    23 1   
    24     9    24 1   
    25    10    25 1   
    26    10    26 1   
    27    10    27 1   
    28    11    28 1   
    29    11    29 1   
    30    11    30 1   
    31    12    31 1   
    32    13    32 1   
    33    33    34 1   
    34    34    35 1   
    35    35    36 ar  
    36    36    37 ar  
    37    37    38 ar  
    38    38    39 1   
    39    39    40 1   
    40    40    41 1   
    41    40    42 1   
    42    40    43 1   
    43    38    44 ar  
    44    44    45 ar  
    45    45    35 ar  
    46    33    46 1   
    47    33    47 1   
    48    34    48 1   
    49    36    49 1   
    50    37    50 1   
    51    39    51 1   
    52    39    52 1   
    53    41    53 1   
    54    41    54 1   
    55    41    55 1   
    56    42    56 1   
    57    42    57 1   
    58    42    58 1   
    59    43    59 1   
    60    43    60 1   
    61    43    61 1   
    62    44    62 1   
    63    45    63 1   
    64    64    65 1   
    65    65    66 1   
    66    66    67 ar  
    67    67    68 ar  
    68    68    69 ar  
    69    69    70 1   
    70    70    71 1   
    71    71    72 1   
    72    71    73 1   
    73    71    74 1   
    74    69    75 ar  
    75    75    76 ar  
    76    76    66 ar  
    77    64    77 1   
    78    64    78 1   
    79    65    79 1   
    80    67    80 1   
    81    68    81 1   
    82    70    82 1   
    83    70    83 1   
    84    72    84 1   
    85    72    85 1   
    86    72    86 1   
    87    73    87 1   
    88    73    88 1   
    89    73    89 1   
    90    74    90 1   
    91    74    91 1   
    92    74    92 1   
    93    75    93 1   
    94    76    94 1   
    95    95    96 1   
    96    96    97 1   
    97    97    98 ar  
    98    98    99 ar  
    99    99   100 ar  
   100   100   101 1   
   101   101   102 1   
   102   102   103 1   
   103   102   104 1   
   104   102   105 1   
   105   100   106 ar  
   106   106   107 ar  
   107   107    97 ar  
   108    95   108 1   
   109    95   109 1   
   110    96   110 1   
   111    98   111 1   
   112    99   112 1   
   113   101   113 1   
   114   101   114 1   
   115   103   115 1   
   116   103   116 1   
   117   103   117 1   
   118   104   118 1   
   119   104   119 1   
   120   104   120 1   
   121   105   121 1   
   122   105   122 1   
   123   105   123 1   
   124   106   124 1   
   125   107   125 1   
   126     2    33 1   
   127    34    64 1   
   128    65    95 1   
   129   126   127 1   
   130   127   128 1   
   131   128   129 ar  
   132   129   130 ar  
   133   130   131 ar  
   134   131   132 1   
   135   132   133 1   
   136   133   134 1   
   137   133   135 1   
   138   133   136 1   
   139   131   137 ar  
   140   137   138 ar  
   141   138   128 ar  
   142   126   139 1   
   143   126   140 1   
   144   127   141 1   
   145   129   142 1   
   146   130   143 1   
   147   132   144 1   
   148   132   145 1   
   149   134   146 1   
   150   134   147 1   
   151   134   148 1   
   152   135   149 1   
   153   135   150 1   
   154   135   151 1   
   155   136   152 1   
   156   136   153 1   
   157   136   154 1   
   158   137   155 1   
   159   138   156 1   
   160   157   158 1   
   161   158   159 1   
   162   159   160 ar  
   163   160   161 ar  
   164   161   162 ar  
   165   162   163 1   
   166   163   164 1   
   167   164   165 1   
   168   164   166 1   
   169   164   167 1   
   170   162   168 ar  
   171   168   169 ar  
   172   169   159 ar  
   173   157   170 1   
   174   157   171 1   
   175   158   172 1   
   176   160   173 1   
   177   161   174 1   
   178   163   175 1   
   179   163   176 1   
   180   165   177 1   
   181   165   178 1   
   182   165   179 1   
   183   166   180 1   
   184   166   181 1   
   185   166   182 1   
   186   167   183 1   
   187   167   184 1   
   188   167   185 1   
   189   168   186 1   
   190   169   187 1   
   191   188   189 1   
   192   189   190 1   
   193   190   191 ar  
   194   191   192 ar  
   195   192   193 ar  
   196   193   194 1   
   197   194   195 1   
   198   195   196 1   
   199   195   197 1   
   200   195   198 1   
   201   193   199 ar  
   202   199   200 ar  
   203   200   190 ar  
   204   188   201 1   
   205   188   202 1   
   206   189   203 1   
   207   191   204 1   
   208   192   205 1   
   209   194   206 1   
   210   194   207 1   
   211   196   208 1   
   212   196   209 1   
   213   196   210 1   
   214   197   211 1   
   215   197   212 1   
   216   197   213 1   
   217   198   214 1   
   218   198   215 1   
   219   198   216 1   
   220   199   217 1   
   221   200   218 1   
   222   219   220 1   
   223   220   221 1   
   224   221   222 ar  
   225   222   223 ar  
   226   223   224 ar  
   227   224   225 1   
   228   225   226 1   
   229   226   227 1   
   230   226   228 1   
   231   226   229 1   
   232   224   230 ar  
   233   230   231 ar  
   234   231   221 ar  
   235   219   232 1   
   236   219   233 1   
   237   220   234 1   
   238   222   235 1   
   239   223   236 1   
   240   225   237 1   
   241   225   238 1   
   242   227   239 1   
   243   227   240 1   
   244   227   241 1   
   245   228   242 1   
   246   228   243 1   
   247   228   244 1   
   248   229   245 1   
   249   229   246 1   
   250   229   247 1   
   251   230   248 1   
   252   231   249 1   
   253   127   157 1   
   254   158   188 1   
   255   189   219 1   
   256    96   126 1   
   257   250   251 1   
   258   251   252 1   
   259   252   253 ar  
   260   253   254 ar  
   261   254   255 ar  
   262   255   256 1   
   263   256   257 1   
   264   257   258 1   
   265   257   259 1   
   266   257   260 1   
   267   255   261 ar  
   268   261   262 ar  
   269   262   252 ar  
   270   250   263 1   
   271   250   264 1   
   272   251   265 1   
   273   253   266 1   
   274   254   267 1   
   275   256   268 1   
   276   256   269 1   
   277   258   270 1   
   278   258   271 1   
   279   258   272 1   
   280   259   273 1   
   281   259   274 1   
   282   259   275 1   
   283   260   276 1   
   284   260   277 1   
   285   260   278 1   
   286   261   279 1   
   287   262   280 1   
   288   281   282 1   
   289   282   283 1   
   290   283   284 ar  
   291   284   285 ar  
   292   285   286 ar  
   293   286   287 1   
   294   287   288 1   
   295   288   289 1   
   296   288   290 1   
   297   288   291 1   
   298   286   292 ar  
   299   292   293 ar  
   300   293   283 ar  
   301   281   294 1   
   302   281   295 1   
   303   282   296 1   
   304   284   297 1   
   305   285   298 1   
   306   287   299 1   
   307   287   300 1   
   308   289   301 1   
   309   289   302 1   
   310   289   303 1   
   311   290   304 1   
   312   290   305 1   
   313   290   306 1   
   314   291   307 1   
   315   291   308 1   
   316   291   309 1   
   317   292   310 1   
   318   293   311 1   
   319   312   313 1   
   320   313   314 1   
   321   314   315 ar  
   322   315   316 ar  
   323   316   317 ar  
   324   317   318 1   
   325   318   319 1   
   326   319   320 1   
   327   319   321 1   
   328   319   322 1   
   329   317   323 ar  
   330   323   324 ar  
   331   324   314 ar  
   332   312   325 1   
   333   312   326 1   
   334   313   327 1   
   335   315   328 1   
   336   316   329 1   
   337   318   330 1   
   338   318   331 1   
   339   320   332 1   
   340   320   333 1   
   341   320   334 1   
   342   321   335 1   
   343   321   336 1   
   344   321   337 1   
   345   322   338 1   
   346   322   339 1   
   347   322   340 1   
   348   323   341 1   
   349   324   342 1   
   350   343   344 1   
   351   344   345 1   
   352   345   346 ar  
   353   346   347 ar  
   354   347   348 ar  
   355   348   349 1   
   356   349   350 1   
   357   350   351 1   
   358   350   352 1   
   359   350   353 1   
   360   348   354 ar  
   361   354   355 ar  
   362   355   345 ar  
   363   343   356 1   
   364   343   357 1   
   365   344   358 1   
   366   346   359 1   
   367   347   360 1   
   368   349   361 1   
   369   349   362 1   
   370   351   363 1   
   371   351   364 1   
   372   351   365 1   
   373   352   366 1   
   374   352   367 1   
   375   352   368 1   
   376   353   369 1   
   377   353   370 1   
   378   353   371 1   
   379   354   372 1   
   380   355   373 1   
   381   251   281 1   
   382   282   312 1   
   383   313   343 1   
   384   220   250 1   
   385   374   375 1   
   386   375   376 1   
   387   376   377 ar  
   388   377   378 ar  
   389   378   379 ar  
   390   379   380 1   
   391   380   381 1   
   392   381   382 1   
   393   381   383 1   
   394   381   384 1   
   395   379   385 ar  
   396   385   386 ar  
   397   386   376 ar  
   398   374   387 1   
   399   374   388 1   
   400   375   389 1   
   401   377   390 1   
   402   378   391 1   
   403   380   392 1   
   404   380   393 1   
   405   382   394 1   
   406   382   395 1   
   407   382   396 1   
   408   383   397 1   
   409   383   398 1   
   410   383   399 1   
   411   384   400 1   
   412   384   401 1   
   413   384   402 1   
   414   385   403 1   
   415   386   404 1   
   416   405   406 1   
   417   406   407 1   
   418   407   408 ar  
   419   408   409 ar  
   420   409   410 ar  
   421   410   411 1   
   422   411   412 1   
   423   412   413 1   
   424   412   414 1   
   425   412   415 1   
   426   410   416 ar  
   427   416   417 ar  
   428   417   407 ar  
   429   405   418 1   
   430   405   419 1   
   431   406   420 1   
   432   408   421 1   
   433   409   422 1   
   434   411   423 1   
   435   411   424 1   
   436   413   425 1   
   437   413   426 1   
   438   413   427 1   
   439   414   428 1   
   440   414   429 1   
   441   414   430 1   
   442   415   431 1   
   443   415   432 1   
   444   415   433 1   
   445   416   434 1   
   446   417   435 1   
   447   436   437 1   
   448   437   438 1   
   449   438   439 ar  
   450   439   440 ar  
   451   440   441 ar  
   452   441   442 1   
   453   442   443 1   
   454   443   444 1   
   455   443   445 1   
   456   443   446 1   
   457   441   447 ar  
   458   447   448 ar  
   459   448   438 ar  
   460   436   449 1   
   461   436   450 1   
   462   437   451 1   
   463   439   452 1   
   464   440   453 1   
   465   442   454 1   
   466   442   455 1   
   467   444   456 1   
   468   444   457 1   
   469   444   458 1   
   470   445   459 1   
   471   445   460 1   
   472   445   461 1   
   473   446   462 1   
   474   446   463 1   
   475   446   464 1   
   476   447   465 1   
   477   448   466 1   
   478   467   468 1   
   479   468   469 1   
   480   469   470 ar  
   481   470   471 ar  
   482   471   472 ar  
   483   472   473 1   
   484   473   474 1   
   485   474   475 1   
   486   474   476 1   
   487   474   477 1   
   488   472   478 ar  
   489   478   479 ar  
   490   479   469 ar  
   491   467   480 1   
   492   467   481 1   
   493   468   482 1   
   494   470   483 1   
   495   471   484 1   
   496   473   485 1   
   497   473   486 1   
   498   475   487 1   
   499   475   488 1   
   500   475   489 1   
   501   476   490 1   
   502   476   491 1   
   503   476   492 1   
   504   477   493 1   
   505   477   494 1   
   506   477   495 1   
   507   478   496 1   
   508   479   497 1   
   509   375   405 1   
   510   406   436 1   
   511   437   467 1   
   512   344   374 1   
   513   498   499 1   
   514   499   500 1   
   515   500   501 ar  
   516   501   502 ar  
   517   502   503 ar  
   518   503   504 1   
   519   504   505 1   
   520   505   506 1   
   521   505   507 1   
   522   505   508 1   
   523   503   509 ar  
   524   509   510 ar  
   525   510   500 ar  
   526   498   511 1   
   527   498   512 1   
   528   499   513 1   
   529   501   514 1   
   530   502   515 1   
   531   504   516 1   
   532   504   517 1   
   533   506   518 1   
   534   506   519 1   
   535   506   520 1   
   536   507   521 1   
   537   507   522 1   
   538   507   523 1   
   539   508   524 1   
   540   508   525 1   
   541   508   526 1   
   542   509   527 1   
   543   510   528 1   
   544   529   530 1   
   545   530   531 1   
   546   531   532 ar  
   547   532   533 ar  
   548   533   534 ar  
   549   534   535 1   
   550   535   536 1   
   551   536   537 1   
   552   536   538 1   
   553   536   539 1   
   554   534   540 ar  
   555   540   541 ar  
   556   541   531 ar  
   557   529   542 1   
   558   529   543 1   
   559   530   544 1   
   560   532   545 1   
   561   533   546 1   
   562   535   547 1   
   563   535   548 1   
   564   537   549 1   
   565   537   550 1   
   566   537   551 1   
   567   538   552 1   
   568   538   553 1   
   569   538   554 1   
   570   539   555 1   
   571   539   556 1   
   572   539   557 1   
   573   540   558 1   
   574   541   559 1   
   575   560   561 1   
   576   561   562 1   
   577   562   563 ar  
   578   563   564 ar  
   579   564   565 ar  
   580   565   566 1   
   581   566   567 1   
   582   567   568 1   
   583   567   569 1   
   584   567   570 1   
   585   565   571 ar  
   586   571   572 ar  
   587   572   562 ar  
   588   560   573 1   
   589   560   574 1   
   590   561   575 1   
   591   563   576 1   
   592   564   577 1   
   593   566   578 1   
   594   566   579 1   
   595   568   580 1   
   596   568   581 1   
   597   568   582 1   
   598   569   583 1   
   599   569   584 1   
   600   569   585 1   
   601   570   586 1   
   602   570   587 1   
   603   570   588 1   
   604   571   589 1   
   605   572   590 1   
   606   591   592 1   
   607   592   593 1   
   608   593   594 ar  
   609   594   595 ar  
   610   595   596 ar  
   611   596   597 1   
   612   597   598 1   
   613   598   599 1   
   614   598   600 1   
   615   598   601 1   
   616   596   602 ar  
   617   602   603 ar  
   618   603   593 ar  
   619   591   604 1   
   620   591   605 1   
   621   592   606 1   
   622   592   607 1   
   623   594   608 1   
   624   595   609 1   
   625   597   610 1   
   626   597   611 1   
   627   599   612 1   
   628   599   613 1   
   629   599   614 1   
   630   600   615 1   
   631   600   616 1   
   632   600   617 1   
   633   601   618 1   
   634   601   619 1   
   635   601   620 1   
   636   602   621 1   
   637   603   622 1   
   638   499   529 1   
   639   530   560 1   
   640   561   591 1   
   641   468   498 1   
   642    14   623 1   
   643    14   624 1   
   644    14   625 1   
   645   606   626 1   
   646   606   627 1   
   647   606   628 1   
@<TRIPOS>SUBSTRUCTURE
      1 POL          1 RESIDUE           0 ****  ****     0 ROOT
