@<TRIPOS>MOLECULE
POL
  318   327     1     0     0
SMALL
USER_CHARGES


@<TRIPOS>ATOM
      1 C1         -1.6444    2.3033   -2.0229 c3          1 POL        -0.072264
      2 C2         -2.2147    0.9156   -2.3891 c3          1 POL        -0.036264
      3 C3         -3.6558    1.0513   -2.8856 ca          1 POL        -0.011164
      4 C4         -3.9580    0.7646   -4.2233 ca          1 POL        -0.120364
      5 C5         -5.2400    0.9980   -4.7376 ca          1 POL        -0.098364
      6 C6         -6.2557    1.5250   -3.9264 ca          1 POL        -0.188164
      7 C7         -7.6114    1.8666   -4.5038 c3          1 POL         0.188236
      8 N1         -8.6977    0.7766   -4.4601 n4          1 POL        -0.606800
      9 C8         -9.9663    1.3507   -5.0993 c3          1 POL         0.090236
     10 C9         -9.0208    0.3766   -3.0301 c3          1 POL         0.090236
     11 C10        -8.2780   -0.4528   -5.2485 c3          1 POL         0.090236
     12 C11        -5.9608    1.7868   -2.5806 ca          1 POL        -0.098364
     13 C12        -4.6789    1.5523   -2.0676 ca          1 POL        -0.120364
     14 C13        -1.7520    3.3412   -3.1396 c3          1 POL        -0.094964
     15 H1         -2.1250    2.6953   -1.1188 hc          1 POL         0.046836
     16 H2         -0.5801    2.2110   -1.8064 hc          1 POL         0.046836
     17 H3         -1.6148    0.5330   -3.2260 hc          1 POL         0.069836
     18 H4         -3.1854    0.3894   -4.8921 ha          1 POL         0.160636
     19 H5         -5.4173    0.8000   -5.7937 ha          1 POL         0.137136
     20 H6         -7.4971    2.1557   -5.5569 hx          1 POL         0.100836
     21 H7         -8.0208    2.7416   -3.9820 hx          1 POL         0.100836
     22 H8        -10.7469    0.5846   -5.0722 hx          1 POL         0.102614
     23 H9         -9.7381    1.6258   -6.1334 hx          1 POL         0.102614
     24 H10       -10.2747    2.2299   -4.5258 hx          1 POL         0.102614
     25 H11        -8.1493   -0.1177   -2.5930 hx          1 POL         0.102614
     26 H12        -9.2807    1.2774   -2.4664 hx          1 POL         0.102614
     27 H13        -9.8667   -0.3177   -3.0474 hx          1 POL         0.102614
     28 H14        -9.1205   -1.1509   -5.2763 hx          1 POL         0.102614
     29 H15        -7.4274   -0.9234   -4.7485 hx          1 POL         0.102614
     30 H16        -8.0098   -0.1418   -6.2623 hx          1 POL         0.102614
     31 H17        -6.7107    2.2183   -1.9191 ha          1 POL         0.137136
     32 H18        -4.4785    1.8051   -1.0277 ha          1 POL         0.160636
     33 C14        -2.1299   -0.1423   -1.2493 c3          1 POL        -0.072264
     34 C15        -0.7347   -0.5224   -0.6553 c3          1 POL        -0.036264
     35 C16         0.2609   -0.9313   -1.7393 ca          1 POL        -0.011164
     36 C17         0.1874   -2.2225   -2.2862 ca          1 POL        -0.120364
     37 C18         1.0971   -2.6539   -3.2606 ca          1 POL        -0.098364
     38 C19         2.1060   -1.8010   -3.7275 ca          1 POL        -0.188164
     39 C20         3.1225   -2.2769   -4.7417 c3          1 POL         0.188236
     40 N2          2.7922   -2.0654   -6.2305 n4          1 POL        -0.606800
     41 C21         3.9634   -2.6091   -7.0563 c3          1 POL         0.090236
     42 C22         2.6224   -0.5899   -6.5568 c3          1 POL         0.090236
     43 C23         1.5349   -2.8201   -6.6305 c3          1 POL         0.090236
     44 C24         2.1721   -0.5054   -3.1967 ca          1 POL        -0.098364
     45 C25         1.2606   -0.0770   -2.2216 ca          1 POL        -0.120364
     46 H19        -2.7823    0.1497   -0.4146 hc          1 POL         0.046836
     47 H20        -2.5774   -1.0728   -1.6392 hc          1 POL         0.046836
     48 H21        -0.9282   -1.4402   -0.0763 hc          1 POL         0.069836
     49 H22        -0.5775   -2.9171   -1.9401 ha          1 POL         0.160636
     50 H23         1.0149   -3.6753   -3.6292 ha          1 POL         0.137136
     51 H24         3.2979   -3.3524   -4.6067 hx          1 POL         0.100836
     52 H25         4.0827   -1.7771   -4.5577 hx          1 POL         0.100836
     53 H26         4.0801   -3.6733   -6.8310 hx          1 POL         0.102614
     54 H27         4.8661   -2.0557   -6.7810 hx          1 POL         0.102614
     55 H28         3.7371   -2.4662   -8.1172 hx          1 POL         0.102614
     56 H29         1.7319   -0.2128   -6.0473 hx          1 POL         0.102614
     57 H30         2.4980   -0.4866   -7.6392 hx          1 POL         0.102614
     58 H31         3.5171   -0.0552   -6.2248 hx          1 POL         0.102614
     59 H32         0.6768   -2.3804   -6.1153 hx          1 POL         0.102614
     60 H33         1.4027   -2.7243   -7.7128 hx          1 POL         0.102614
     61 H34         1.6575   -3.8715   -6.3547 hx          1 POL         0.102614
     62 H35         2.9486    0.1883   -3.5165 ha          1 POL         0.137136
     63 H36         1.3640    0.9359   -1.8394 ha          1 POL         0.160636
     64 C26        -0.2134    0.4971    0.4088 c3          1 POL        -0.072264
     65 C27         0.9783   -0.0104    1.2798 c3          1 POL        -0.036264
     66 C28         0.5647   -1.1063    2.2459 ca          1 POL        -0.011164
     67 C29         1.2173   -2.3410    2.1684 ca          1 POL        -0.120364
     68 C30         0.9698   -3.3457    3.1120 ca          1 POL        -0.098364
     69 C31         0.0481   -3.1457    4.1498 ca          1 POL        -0.188164
     70 C32        -0.1449   -4.1896    5.2277 c3          1 POL         0.188236
     71 N3         -1.2347   -5.2526    5.0024 n4          1 POL        -0.606800
     72 C33        -1.2427   -6.1838    6.2200 c3          1 POL         0.090236
     73 C34        -2.6089   -4.6163    4.8776 c3          1 POL         0.090236
     74 C35        -0.9449   -6.0857    3.7652 c3          1 POL         0.090236
     75 C36        -0.6418   -1.9254    4.1979 ca          1 POL        -0.098364
     76 C37        -0.3929   -0.9213    3.2535 ca          1 POL        -0.120364
     77 H37         0.1051    1.4219   -0.0750 hc          1 POL         0.046836
     78 H38        -1.0476    0.7796    1.0635 hc          1 POL         0.046836
     79 H39         1.7206   -0.4158    0.5864 hc          1 POL         0.069836
     80 H40         1.9669   -2.5180    1.3979 ha          1 POL         0.160636
     81 H41         1.5434   -4.2691    3.0455 ha          1 POL         0.137136
     82 H42         0.7973   -4.7316    5.3836 hx          1 POL         0.100836
     83 H43        -0.3805   -3.6926    6.1781 hx          1 POL         0.100836
     84 H44        -1.4629   -5.5866    7.1100 hx          1 POL         0.102614
     85 H45        -0.2573   -6.6517    6.3036 hx          1 POL         0.102614
     86 H46        -2.0148   -6.9446    6.0707 hx          1 POL         0.102614
     87 H47        -3.3570   -5.4137    4.8278 hx          1 POL         0.102614
     88 H48        -2.7827   -3.9873    5.7556 hx          1 POL         0.102614
     89 H49        -2.6441   -4.0221    3.9607 hx          1 POL         0.102614
     90 H50        -1.6852   -6.8898    3.7077 hx          1 POL         0.102614
     91 H51         0.0624   -6.5030    3.8541 hx          1 POL         0.102614
     92 H52        -1.0250   -5.4488    2.8804 hx          1 POL         0.102614
     93 H53        -1.3530   -1.7184    4.9964 ha          1 POL         0.137136
     94 H54        -0.9208    0.0265    3.3478 ha          1 POL         0.160636
     95 C38         1.6785    1.1760    2.0048 c3          1 POL        -0.072264
     96 C39         2.8673    0.8687    2.9909 c3          1 POL        -0.036264
     97 C40         3.3992    2.1992    3.4817 ca          1 POL        -0.011164
     98 C41         4.5043    2.8358    2.8940 ca          1 POL        -0.120364
     99 C42         5.2349    3.7683    3.6184 ca          1 POL        -0.098364
    100 C43         4.7807    4.1627    4.8760 ca          1 POL        -0.188164
    101 C44         5.5202    5.2278    5.6542 c3          1 POL         0.188236
    102 N4          5.1408    6.6913    5.3758 n4          1 POL        -0.606800
    103 C45         6.0181    7.5802    6.2742 c3          1 POL         0.090236
    104 C46         5.3059    7.0941    3.9277 c3          1 POL         0.090236
    105 C47         3.6872    6.9643    5.7130 c3          1 POL         0.090236
    106 C48         3.5474    3.6857    5.3419 ca          1 POL        -0.098364
    107 C49         2.8448    2.7225    4.6417 ca          1 POL        -0.120364
    108 H55         0.9142    1.7414    2.5576 hc          1 POL         0.046836
    109 H56         2.0451    1.8638    1.2289 hc          1 POL         0.046836
    110 H57         2.4584    0.3167    3.8516 hc          1 POL         0.069836
    111 H58         4.8983    2.5129    1.9345 ha          1 POL         0.160636
    112 H59         6.1982    4.0956    3.2309 ha          1 POL         0.137136
    113 H60         6.5981    5.1364    5.4654 hx          1 POL         0.100836
    114 H61         5.3754    5.0615    6.7299 hx          1 POL         0.100836
    115 H62         5.8195    7.3184    7.3176 hx          1 POL         0.102614
    116 H63         7.0672    7.3970    6.0239 hx          1 POL         0.102614
    117 H64         5.7590    8.6267    6.0879 hx          1 POL         0.102614
    118 H65         5.1938    8.1793    3.8431 hx          1 POL         0.102614
    119 H66         6.2941    6.7868    3.6057 hx          1 POL         0.102614
    120 H67         4.5478    6.5920    3.3194 hx          1 POL         0.102614
    121 H68         3.0536    6.4072    5.0180 hx          1 POL         0.102614
    122 H69         3.4986    8.0368    5.6031 hx          1 POL         0.102614
    123 H70         3.5030    6.6506    6.7447 hx          1 POL         0.102614
    124 H71         3.1982    3.9026    6.3414 ha          1 POL         0.137136
    125 H72         1.9467    2.2896    5.0748 ha          1 POL         0.160636
    126 C50         4.0212    0.0158    2.4147 c3          1 POL        -0.072264
    127 C51         5.2575   -0.5684    3.2836 c3          1 POL        -0.036264
    128 C52         5.9551   -1.3930    2.1707 ca          1 POL        -0.011164
    129 C53         6.5042   -0.7289    1.0557 ca          1 POL        -0.120364
    130 C54         6.6905   -1.3961   -0.1542 ca          1 POL        -0.098364
    131 C55         6.4318   -2.7656   -0.2539 ca          1 POL        -0.188164
    132 C56         6.5930   -3.4949   -1.5691 c3          1 POL         0.188236
    133 N5          7.9548   -4.1455   -1.8616 n4          1 POL        -0.606800
    134 C57         8.2849   -5.2211   -0.8398 c3          1 POL         0.090236
    135 C58         9.0652   -3.1109   -1.8895 c3          1 POL         0.090236
    136 C59         7.8711   -4.8077   -3.2420 c3          1 POL         0.090236
    137 C60         5.9908   -3.4472    0.8875 ca          1 POL        -0.098364
    138 C61         5.7533   -2.7690    2.0883 ca          1 POL        -0.120364
    139 H73         4.3970    0.5370    1.5266 hc          1 POL         0.046836
    140 H74         3.5358   -0.8739    1.9964 hc          1 POL         0.046836
    141 H75         4.8207   -1.2517    4.0257 hc          1 POL         0.069836
    142 H76         6.6518    0.3501    1.0775 ha          1 POL         0.160636
    143 H77         6.9564   -0.8076   -1.0288 ha          1 POL         0.137136
    144 H78         6.3893   -2.8028   -2.3950 hx          1 POL         0.100836
    145 H79         5.8417   -4.2926   -1.6385 hx          1 POL         0.100836
    146 H80         9.2009   -5.7283   -1.1541 hx          1 POL         0.102614
    147 H81         8.4430   -4.7489    0.1324 hx          1 POL         0.102614
    148 H82         7.4526   -5.9300   -0.7999 hx          1 POL         0.102614
    149 H83         9.9939   -3.6074   -2.1875 hx          1 POL         0.102614
    150 H84         8.8001   -2.3339   -2.6129 hx          1 POL         0.102614
    151 H85         9.1799   -2.6844   -0.8906 hx          1 POL         0.102614
    152 H86         7.6374   -4.0362   -3.9790 hx          1 POL         0.102614
    153 H87         7.0832   -5.5655   -3.2152 hx          1 POL         0.102614
    154 H88         8.8366   -5.2688   -3.4637 hx          1 POL         0.102614
    155 H89         5.7900   -4.5175    0.8559 ha          1 POL         0.137136
    156 H90         5.3408   -3.3178    2.9278 ha          1 POL         0.160636
    157 C62         6.3427    0.3389    4.0163 c3          1 POL        -0.072264
    158 C63         6.8039   -0.0378    5.4885 c3          1 POL        -0.036264
    159 C64         5.6087   -0.0269    6.4307 ca          1 POL        -0.011164
    160 C65         4.8239    1.1186    6.6188 ca          1 POL        -0.120364
    161 C66         3.7336    1.1077    7.4980 ca          1 POL        -0.098364
    162 C67         3.3972   -0.0505    8.2142 ca          1 POL        -0.188164
    163 C68         2.2529   -0.0477    9.2034 c3          1 POL         0.188236
    164 N6          0.8638   -0.4540    8.6807 n4          1 POL        -0.606800
    165 C69        -0.1231   -0.3730    9.8500 c3          1 POL         0.090236
    166 C70         0.8627   -1.8805    8.1556 c3          1 POL         0.090236
    167 C71         0.3887    0.4875    7.5864 c3          1 POL         0.090236
    168 C72         4.1788   -1.1986    8.0223 ca          1 POL        -0.098364
    169 C73         5.2686   -1.1864    7.1435 ca          1 POL        -0.120364
    170 H91         7.2508    0.3748    3.4069 hc          1 POL         0.046836
    171 H92         5.9885    1.3564    4.0695 hc          1 POL         0.046836
    172 H93         7.2408   -1.0473    5.5155 hc          1 POL         0.069836
    173 H94         5.0644    2.0424    6.0957 ha          1 POL         0.160636
    174 H95         3.1692    2.0290    7.6338 ha          1 POL         0.137136
    175 H96         2.1464    0.9562    9.6339 hx          1 POL         0.100836
    176 H97         2.4869   -0.7228   10.0366 hx          1 POL         0.100836
    177 H98        -0.1334    0.6553   10.2232 hx          1 POL         0.102614
    178 H99        -1.1160   -0.6579    9.4887 hx          1 POL         0.102614
    179 H100        0.2100   -1.0621   10.6308 hx          1 POL         0.102614
    180 H101        1.4962   -1.9349    7.2660 hx          1 POL         0.102614
    181 H102       -0.1642   -2.1514    7.8926 hx          1 POL         0.102614
    182 H103        1.2400   -2.5401    8.9421 hx          1 POL         0.102614
    183 H104        1.0312    0.3680    6.7107 hx          1 POL         0.102614
    184 H105        0.4333    1.5125    7.9656 hx          1 POL         0.102614
    185 H106       -0.6409    0.2233    7.3264 hx          1 POL         0.102614
    186 H107        3.9691   -2.1140    8.5740 ha          1 POL         0.137136
    187 H108        5.8632   -2.0928    7.0358 ha          1 POL         0.160636
    188 C74         7.8891    0.8999    6.1536 c3          1 POL        -0.072264
    189 C75         9.3478    0.8969    5.6176 c3          1 POL        -0.036264
    190 C76         9.5927    2.0811    4.6544 ca          1 POL        -0.011164
    191 C77         9.7532    3.3852    5.1899 ca          1 POL        -0.120364
    192 C78        10.0368    4.4869    4.3750 ca          1 POL        -0.098364
    193 C79        10.1560    4.3378    2.9889 ca          1 POL        -0.188164
    194 C80        10.5341    5.5126    2.1137 c3          1 POL         0.188236
    195 N7          9.3986    6.4151    1.6071 n4          1 POL        -0.606800
    196 C81         8.3893    5.6272    0.7850 c3          1 POL         0.090236
    197 C82         8.7653    7.1547    2.7546 c3          1 POL         0.090236
    198 C83        10.0154    7.4939    0.7063 c3          1 POL         0.090236
    199 C84         9.9733    3.0562    2.4445 ca          1 POL        -0.098364
    200 C85         9.6993    1.9506    3.2656 ca          1 POL        -0.120364
    201 H109        7.5196    1.9311    6.1954 hc          1 POL         0.046836
    202 H110        7.9905    0.6087    7.2226 hc          1 POL         0.046836
    203 H111        9.9761    1.1678    6.4805 hc          1 POL         0.069836
    204 H112        9.6878    3.5388    6.2669 ha          1 POL         0.160636
    205 H113       10.1944    5.4542    4.8504 ha          1 POL         0.137136
    206 H114       11.2359    6.1612    2.6546 hx          1 POL         0.100836
    207 H115       11.0657    5.1455    1.2256 hx          1 POL         0.100836
    208 H116        7.6509    6.3244    0.3766 hx          1 POL         0.102614
    209 H117        7.8902    4.9042    1.4345 hx          1 POL         0.102614
    210 H118        8.9201    5.1184   -0.0245 hx          1 POL         0.102614
    211 H119        8.3158    6.4238    3.4267 hx          1 POL         0.102614
    212 H120        9.5337    7.7254    3.2859 hx          1 POL         0.102614
    213 H121        8.0001    7.8287    2.3579 hx          1 POL         0.102614
    214 H122       10.7139    8.0841    1.3074 hx          1 POL         0.102614
    215 H123       10.5376    6.9990   -0.1185 hx          1 POL         0.102614
    216 H124        9.2115    8.1291    0.3191 hx          1 POL         0.102614
    217 H125       10.0775    2.8911    1.3739 ha          1 POL         0.137136
    218 H126        9.5968    0.9734    2.7988 ha          1 POL         0.160636
    219 C86         9.8506   -0.5347    5.2260 c3          1 POL        -0.072264
    220 C87         9.9429   -1.5470    6.4431 c3          1 POL        -0.036264
    221 C88        11.1749   -1.3204    7.2605 ca          1 POL        -0.011164
    222 C89        10.9846   -0.9098    8.5679 ca          1 POL        -0.120364
    223 C90        12.0315   -1.0094    9.4507 ca          1 POL        -0.098364
    224 C91        13.2744   -1.5121    9.0581 ca          1 POL        -0.188164
    225 C92        14.3761   -1.6777   10.0808 c3          1 POL         0.188236
    226 N8         15.3394   -0.4958   10.2866 n4          1 POL        -0.606800
    227 C93        14.5990    0.7442   10.7642 c3          1 POL         0.090236
    228 C94        16.3534   -0.8998   11.3644 c3          1 POL         0.090236
    229 C95        16.0997   -0.1742    9.0090 c3          1 POL         0.090236
    230 C96        13.4878   -1.8523    7.7219 ca          1 POL        -0.098364
    231 C97        12.4500   -1.7026    6.8127 ca          1 POL        -0.120364
    232 H127        9.1929   -0.9498    4.4534 hc          1 POL         0.046836
    233 H128       10.8384   -0.4453    4.7552 hc          1 POL         0.046836
    234 H129        9.0570   -1.4002    7.0734 hc          1 POL         0.069836
    235 H130       10.0097   -0.5954    8.9319 ha          1 POL         0.160636
    236 H131       11.8068   -0.7384   10.4593 ha          1 POL         0.137136
    237 H132       14.9937   -2.5457    9.8135 hx          1 POL         0.100836
    238 H133       13.9342   -1.9003   11.0612 hx          1 POL         0.100836
    239 H134       15.3354    1.5172   11.0011 hx          1 POL         0.102614
    240 H135       13.9412    1.0976    9.9648 hx          1 POL         0.102614
    241 H136       14.0213    0.4833   11.6569 hx          1 POL         0.102614
    242 H137       15.8081   -1.1242   12.2860 hx          1 POL         0.102614
    243 H138       16.8986   -1.7819   11.0142 hx          1 POL         0.102614
    244 H139       17.0420   -0.0649   11.5226 hx          1 POL         0.102614
    245 H140       16.5904   -1.0875    8.6556 hx          1 POL         0.102614
    246 H141       15.3967    0.2068    8.2631 hx          1 POL         0.102614
    247 H142       16.8454    0.5948    9.2340 hx          1 POL         0.102614
    248 H143       14.4287   -2.2997    7.3955 ha          1 POL         0.137136
    249 H144       12.6078   -2.0153    5.7834 ha          1 POL         0.160636
    250 C98         9.8963   -3.0343    6.0204 c3          1 POL        -0.072264
    251 C99        10.5899   -4.2713    6.7528 c3          1 POL        -0.036264
    252 C100       10.3284   -4.6253    8.2549 ca          1 POL        -0.011164
    253 C101        9.0132   -4.6771    8.7164 ca          1 POL        -0.120364
    254 C102        8.6752   -5.0654   10.0272 ca          1 POL        -0.098364
    255 C103        9.6626   -5.4153   10.9583 ca          1 POL        -0.188164
    256 C104        9.2926   -5.7600   12.3804 c3          1 POL         0.188236
    257 N9          9.2386   -4.5943   13.3892 n4          1 POL        -0.606800
    258 C105        8.8561   -5.1671   14.7527 c3          1 POL         0.090236
    259 C106       10.5916   -3.9105   13.5105 c3          1 POL         0.090236
    260 C107        8.1925   -3.5652   12.9857 c3          1 POL         0.090236
    261 C108       10.9986   -5.4517   10.5327 ca          1 POL        -0.098364
    262 C109       11.3232   -5.0648    9.1872 ca          1 POL        -0.120364
    263 H145       10.3872   -3.0031    5.0492 hc          1 POL         0.046836
    264 H146        8.8411   -3.2778    5.8377 hc          1 POL         0.046836
    265 H147       11.6749   -4.1669    6.6552 hc          1 POL         0.069836
    266 H148        8.2248   -4.4718    8.0148 ha          1 POL         0.160636
    267 H149        7.6227   -5.0488   10.3048 ha          1 POL         0.137136
    268 H150       10.0073   -6.4909   12.7808 hx          1 POL         0.100836
    269 H151        8.3056   -6.2406   12.3992 hx          1 POL         0.100836
    270 H152        9.6162   -5.8967   15.0475 hx          1 POL         0.102614
    271 H153        7.8765   -5.6465   14.6646 hx          1 POL         0.102614
    272 H154        8.8150   -4.3476   15.4765 hx          1 POL         0.102614
    273 H155       11.3434   -4.6677   13.7515 hx          1 POL         0.102614
    274 H156       10.8277   -3.4133   12.5662 hx          1 POL         0.102614
    275 H157       10.5324   -3.1672   14.3117 hx          1 POL         0.102614
    276 H158        8.5105   -3.0745   12.0623 hx          1 POL         0.102614
    277 H159        8.1122   -2.8228   13.7860 hx          1 POL         0.102614
    278 H160        7.2361   -4.0776   12.8473 hx          1 POL         0.102614
    279 H161       11.7954   -5.7415   11.2155 ha          1 POL         0.137136
    280 H162       12.3847   -5.1706    8.9134 ha          1 POL         0.160636
    281 C110       10.1745   -5.5063    5.8858 c3          1 POL        -0.072264
    282 C111       10.4451   -5.5030    4.3462 c3          1 POL        -0.036264
    283 C112       11.9224   -5.4635    3.9917 ca          1 POL        -0.011164
    284 C113       12.6922   -4.3404    3.6029 ca          1 POL        -0.120364
    285 C114       14.0517   -4.5123    3.2445 ca          1 POL        -0.098364
    286 C115       14.6305   -5.7896    3.2728 ca          1 POL        -0.188164
    287 C116       16.0579   -5.9997    2.8293 c3          1 POL         0.188236
    288 N10        16.2830   -6.3136    1.3353 n4          1 POL        -0.606800
    289 C117       17.7831   -6.4896    1.1090 c3          1 POL         0.090236
    290 C118       15.5767   -7.5995    0.9303 c3          1 POL         0.090236
    291 C119       15.7897   -5.1758    0.4528 c3          1 POL         0.090236
    292 C120       13.8713   -6.8717    3.7090 ca          1 POL        -0.098364
    293 C121       12.5486   -6.7130    4.0648 ca          1 POL        -0.120364
    294 H163       10.6765   -6.3876    6.3035 hc          1 POL         0.046836
    295 H164        9.0995   -5.6924    6.0286 hc          1 POL         0.046836
    296 C122        9.5444   -4.6640    3.4294 c3          1 POL        -0.088964
    297 H165       10.1126   -6.5172    4.0633 hc          1 POL         0.069836
    298 H166       12.2889   -3.3245    3.5673 ha          1 POL         0.160636
    299 H167       14.6261   -3.6433    2.9281 ha          1 POL         0.137136
    300 H168       16.5031   -6.8276    3.3966 hx          1 POL         0.100836
    301 H169       16.6515   -5.1047    3.0572 hx          1 POL         0.100836
    302 H170       17.9531   -6.7127    0.0514 hx          1 POL         0.102614
    303 H171       18.1328   -7.3174    1.7332 hx          1 POL         0.102614
    304 H172       18.2868   -5.5590    1.3871 hx          1 POL         0.102614
    305 H173       15.8569   -7.8372   -0.1006 hx          1 POL         0.102614
    306 H174       15.8978   -8.3991    1.6041 hx          1 POL         0.102614
    307 H175       14.4958   -7.4486    0.9903 hx          1 POL         0.102614
    308 H176       16.0728   -5.3938   -0.5817 hx          1 POL         0.102614
    309 H177       16.2618   -4.2474    0.7870 hx          1 POL         0.102614
    310 H178       14.7013   -5.1100    0.5282 hx          1 POL         0.102614
    311 H179       14.2659   -7.8719    3.7792 ha          1 POL         0.137136
    312 H180       12.0008   -7.5990    4.3908 ha          1 POL         0.160636
    313 H181       -1.3137    2.9657   -4.0703 hc          1 POL         0.045503
    314 H182       -2.7901    3.6279   -3.3337 hc          1 POL         0.045503
    315 H183       -1.2112    4.2503   -2.8563 hc          1 POL         0.045503
    316 H184        9.8905   -3.6421    3.2622 hc          1 POL         0.045503
    317 H185        9.5111   -5.1216    2.4325 hc          1 POL         0.045503
    318 H186        8.5165   -4.6360    3.8047 hc          1 POL         0.045503
@<TRIPOS>BOND
     1     1     2 1   
     2     2     3 1   
     3     3     4 ar  
     4     4     5 ar  
     5     5     6 ar  
     6     6     7 1   
     7     7     8 1   
     8     8     9 1   
     9     8    10 1   
    10     8    11 1   
    11     6    12 ar  
    12    12    13 ar  
    13    13     3 ar  
    14     1    14 1   
    15     1    15 1   
    16     1    16 1   
    17     2    17 1   
    18     4    18 1   
    19     5    19 1   
    20     7    20 1   
    21     7    21 1   
    22     9    22 1   
    23     9    23 1   
    24     9    24 1   
    25    10    25 1   
    26    10    26 1   
    27    10    27 1   
    28    11    28 1   
    29    11    29 1   
    30    11    30 1   
    31    12    31 1   
    32    13    32 1   
    33    33    34 1   
    34    34    35 1   
    35    35    36 ar  
    36    36    37 ar  
    37    37    38 ar  
    38    38    39 1   
    39    39    40 1   
    40    40    41 1   
    41    40    42 1   
    42    40    43 1   
    43    38    44 ar  
    44    44    45 ar  
    45    45    35 ar  
    46    33    46 1   
    47    33    47 1   
    48    34    48 1   
    49    36    49 1   
    50    37    50 1   
    51    39    51 1   
    52    39    52 1   
    53    41    53 1   
    54    41    54 1   
    55    41    55 1   
    56    42    56 1   
    57    42    57 1   
    58    42    58 1   
    59    43    59 1   
    60    43    60 1   
    61    43    61 1   
    62    44    62 1   
    63    45    63 1   
    64    64    65 1   
    65    65    66 1   
    66    66    67 ar  
    67    67    68 ar  
    68    68    69 ar  
    69    69    70 1   
    70    70    71 1   
    71    71    72 1   
    72    71    73 1   
    73    71    74 1   
    74    69    75 ar  
    75    75    76 ar  
    76    76    66 ar  
    77    64    77 1   
    78    64    78 1   
    79    65    79 1   
    80    67    80 1   
    81    68    81 1   
    82    70    82 1   
    83    70    83 1   
    84    72    84 1   
    85    72    85 1   
    86    72    86 1   
    87    73    87 1   
    88    73    88 1   
    89    73    89 1   
    90    74    90 1   
    91    74    91 1   
    92    74    92 1   
    93    75    93 1   
    94    76    94 1   
    95    95    96 1   
    96    96    97 1   
    97    97    98 ar  
    98    98    99 ar  
    99    99   100 ar  
   100   100   101 1   
   101   101   102 1   
   102   102   103 1   
   103   102   104 1   
   104   102   105 1   
   105   100   106 ar  
   106   106   107 ar  
   107   107    97 ar  
   108    95   108 1   
   109    95   109 1   
   110    96   110 1   
   111    98   111 1   
   112    99   112 1   
   113   101   113 1   
   114   101   114 1   
   115   103   115 1   
   116   103   116 1   
   117   103   117 1   
   118   104   118 1   
   119   104   119 1   
   120   104   120 1   
   121   105   121 1   
   122   105   122 1   
   123   105   123 1   
   124   106   124 1   
   125   107   125 1   
   126     2    33 1   
   127    34    64 1   
   128    65    95 1   
   129   126   127 1   
   130   127   128 1   
   131   128   129 ar  
   132   129   130 ar  
   133   130   131 ar  
   134   131   132 1   
   135   132   133 1   
   136   133   134 1   
   137   133   135 1   
   138   133   136 1   
   139   131   137 ar  
   140   137   138 ar  
   141   138   128 ar  
   142   126   139 1   
   143   126   140 1   
   144   127   141 1   
   145   129   142 1   
   146   130   143 1   
   147   132   144 1   
   148   132   145 1   
   149   134   146 1   
   150   134   147 1   
   151   134   148 1   
   152   135   149 1   
   153   135   150 1   
   154   135   151 1   
   155   136   152 1   
   156   136   153 1   
   157   136   154 1   
   158   137   155 1   
   159   138   156 1   
   160   157   158 1   
   161   158   159 1   
   162   159   160 ar  
   163   160   161 ar  
   164   161   162 ar  
   165   162   163 1   
   166   163   164 1   
   167   164   165 1   
   168   164   166 1   
   169   164   167 1   
   170   162   168 ar  
   171   168   169 ar  
   172   169   159 ar  
   173   157   170 1   
   174   157   171 1   
   175   158   172 1   
   176   160   173 1   
   177   161   174 1   
   178   163   175 1   
   179   163   176 1   
   180   165   177 1   
   181   165   178 1   
   182   165   179 1   
   183   166   180 1   
   184   166   181 1   
   185   166   182 1   
   186   167   183 1   
   187   167   184 1   
   188   167   185 1   
   189   168   186 1   
   190   169   187 1   
   191   188   189 1   
   192   189   190 1   
   193   190   191 ar  
   194   191   192 ar  
   195   192   193 ar  
   196   193   194 1   
   197   194   195 1   
   198   195   196 1   
   199   195   197 1   
   200   195   198 1   
   201   193   199 ar  
   202   199   200 ar  
   203   200   190 ar  
   204   188   201 1   
   205   188   202 1   
   206   189   203 1   
   207   191   204 1   
   208   192   205 1   
   209   194   206 1   
   210   194   207 1   
   211   196   208 1   
   212   196   209 1   
   213   196   210 1   
   214   197   211 1   
   215   197   212 1   
   216   197   213 1   
   217   198   214 1   
   218   198   215 1   
   219   198   216 1   
   220   199   217 1   
   221   200   218 1   
   222   219   220 1   
   223   220   221 1   
   224   221   222 ar  
   225   222   223 ar  
   226   223   224 ar  
   227   224   225 1   
   228   225   226 1   
   229   226   227 1   
   230   226   228 1   
   231   226   229 1   
   232   224   230 ar  
   233   230   231 ar  
   234   231   221 ar  
   235   219   232 1   
   236   219   233 1   
   237   220   234 1   
   238   222   235 1   
   239   223   236 1   
   240   225   237 1   
   241   225   238 1   
   242   227   239 1   
   243   227   240 1   
   244   227   241 1   
   245   228   242 1   
   246   228   243 1   
   247   228   244 1   
   248   229   245 1   
   249   229   246 1   
   250   229   247 1   
   251   230   248 1   
   252   231   249 1   
   253   127   157 1   
   254   158   188 1   
   255   189   219 1   
   256    96   126 1   
   257   250   251 1   
   258   251   252 1   
   259   252   253 ar  
   260   253   254 ar  
   261   254   255 ar  
   262   255   256 1   
   263   256   257 1   
   264   257   258 1   
   265   257   259 1   
   266   257   260 1   
   267   255   261 ar  
   268   261   262 ar  
   269   262   252 ar  
   270   250   263 1   
   271   250   264 1   
   272   251   265 1   
   273   253   266 1   
   274   254   267 1   
   275   256   268 1   
   276   256   269 1   
   277   258   270 1   
   278   258   271 1   
   279   258   272 1   
   280   259   273 1   
   281   259   274 1   
   282   259   275 1   
   283   260   276 1   
   284   260   277 1   
   285   260   278 1   
   286   261   279 1   
   287   262   280 1   
   288   281   282 1   
   289   282   283 1   
   290   283   284 ar  
   291   284   285 ar  
   292   285   286 ar  
   293   286   287 1   
   294   287   288 1   
   295   288   289 1   
   296   288   290 1   
   297   288   291 1   
   298   286   292 ar  
   299   292   293 ar  
   300   293   283 ar  
   301   281   294 1   
   302   281   295 1   
   303   282   296 1   
   304   282   297 1   
   305   284   298 1   
   306   285   299 1   
   307   287   300 1   
   308   287   301 1   
   309   289   302 1   
   310   289   303 1   
   311   289   304 1   
   312   290   305 1   
   313   290   306 1   
   314   290   307 1   
   315   291   308 1   
   316   291   309 1   
   317   291   310 1   
   318   292   311 1   
   319   293   312 1   
   320   251   281 1   
   321   220   250 1   
   322    14   313 1   
   323    14   314 1   
   324    14   315 1   
   325   296   316 1   
   326   296   317 1   
   327   296   318 1   
@<TRIPOS>SUBSTRUCTURE
      1 POL          1 RESIDUE           0 ****  ****     0 ROOT
