
     RDKit          3D

 39 39  0  0  0  0  0  0  0  0999 V2000
    3.9256    1.0987    0.8114 C   0  0  0  0  0  0  0  0  0  0  0  0
    3.1939   -0.0068    0.0239 C   0  0  0  0  0  0  0  0  0  0  0  0
    1.6881    0.2255    0.0459 C   0  0  0  0  0  0  0  0  0  0  0  0
    1.0119    0.5237   -1.1440 C   0  0  0  0  0  0  0  0  0  0  0  0
   -0.3673    0.7482   -1.1462 C   0  0  0  0  0  0  0  0  0  0  0  0
   -1.1058    0.6735    0.0433 C   0  0  0  0  0  0  0  0  0  0  0  0
   -2.5960    0.9020    0.0403 C   0  0  0  0  0  0  0  0  0  0  0  0
   -3.4868   -0.3414   -0.1677 N   0  0  0  0  0  0  0  0  0  0  0  0
   -3.2067   -0.9958   -1.5125 C   0  0  0  0  0  0  0  0  0  0  0  0
   -3.2677   -1.3623    0.9390 C   0  0  0  0  0  0  0  0  0  0  0  0
   -4.9432    0.1112   -0.1363 C   0  0  0  0  0  0  0  0  0  0  0  0
   -0.4269    0.3913    1.2372 C   0  0  0  0  0  0  0  0  0  0  0  0
    0.9523    0.1671    1.2369 C   0  0  0  0  0  0  0  0  0  0  0  0
    5.4390    1.0539    0.6497 C   0  0  0  0  0  0  0  0  0  0  0  0
    3.6827    1.0383    1.8795 H   0  0  0  0  0  0  0  0  0  0  0  0
    3.5751    2.0809    0.4683 H   0  0  0  0  0  0  0  0  0  0  0  0
    3.5348   -1.4141    0.5267 C   0  0  0  0  0  0  0  0  0  0  0  0
    3.5314    0.0484   -1.0202 H   0  0  0  0  0  0  0  0  0  0  0  0
    1.5615    0.5926   -2.0820 H   0  0  0  0  0  0  0  0  0  0  0  0
   -0.8477    0.9929   -2.0916 H   0  0  0  0  0  0  0  0  0  0  0  0
   -2.9037    1.3556    0.9916 H   0  0  0  0  0  0  0  0  0  0  0  0
   -2.8602    1.6160   -0.7507 H   0  0  0  0  0  0  0  0  0  0  0  0
   -3.3101   -0.2391   -2.2956 H   0  0  0  0  0  0  0  0  0  0  0  0
   -2.1973   -1.4151   -1.5046 H   0  0  0  0  0  0  0  0  0  0  0  0
   -3.9352   -1.7986   -1.6634 H   0  0  0  0  0  0  0  0  0  0  0  0
   -2.2562   -1.7684    0.8580 H   0  0  0  0  0  0  0  0  0  0  0  0
   -3.4145   -0.8668    1.9031 H   0  0  0  0  0  0  0  0  0  0  0  0
   -3.9969   -2.1688    0.8132 H   0  0  0  0  0  0  0  0  0  0  0  0
   -5.5840   -0.7635   -0.2830 H   0  0  0  0  0  0  0  0  0  0  0  0
   -5.0990    0.8354   -0.9415 H   0  0  0  0  0  0  0  0  0  0  0  0
   -5.1432    0.5695    0.8369 H   0  0  0  0  0  0  0  0  0  0  0  0
   -0.9547    0.3523    2.1882 H   0  0  0  0  0  0  0  0  0  0  0  0
    1.4538   -0.0446    2.1801 H   0  0  0  0  0  0  0  0  0  0  0  0
    5.8949    1.9137    1.1512 H   0  0  0  0  0  0  0  0  0  0  0  0
    5.8637    0.1493    1.0943 H   0  0  0  0  0  0  0  0  0  0  0  0
    5.7231    1.0891   -0.4067 H   0  0  0  0  0  0  0  0  0  0  0  0
    2.9453   -2.1721   -0.0018 H   0  0  0  0  0  0  0  0  0  0  0  0
    3.3353   -1.5237    1.5982 H   0  0  0  0  0  0  0  0  0  0  0  0
    4.5908   -1.6476    0.3584 H   0  0  0  0  0  0  0  0  0  0  0  0
  1  2  1  0
  2  3  1  0
  3  4  1  0
  4  5  2  0
  5  6  1  0
  6  7  1  0
  7  8  1  0
  8  9  1  0
  8 10  1  0
  8 11  1  0
  6 12  2  0
 12 13  1  0
 13  3  2  0
  1 14  1  0
  1 15  1  0
  1 16  1  0
  2 17  1  0
  2 18  1  0
  4 19  1  0
  5 20  1  0
  7 21  1  0
  7 22  1  0
  9 23  1  0
  9 24  1  0
  9 25  1  0
 10 26  1  0
 10 27  1  0
 10 28  1  0
 11 29  1  0
 11 30  1  0
 11 31  1  0
 12 32  1  0
 13 33  1  0
 14 34  1  0
 14 35  1  0
 14 36  1  0
 17 37  1  0
 17 38  1  0
 17 39  1  0
M  CHG  1   8   1
M  END
