@<TRIPOS>MOLECULE
MOL
   39    39     1     0     0
SMALL
bcc


@<TRIPOS>ATOM
      1 C1           3.9260     1.0990     0.8110 c3         1 MOL      -0.074400
      2 C2           3.1940    -0.0070     0.0240 c3         1 MOL      -0.038400
      3 C3           1.6880     0.2260     0.0460 ca         1 MOL      -0.013300
      4 C4           1.0120     0.5240    -1.1440 ca         1 MOL      -0.122500
      5 C5          -0.3670     0.7480    -1.1460 ca         1 MOL      -0.100500
      6 C6          -1.1060     0.6730     0.0430 ca         1 MOL      -0.190300
      7 C7          -2.5960     0.9020     0.0400 c3         1 MOL       0.186100
      8 N1          -3.4870    -0.3410    -0.1680 n4         1 MOL      -0.606800
      9 C8          -3.2070    -0.9960    -1.5120 c3         1 MOL       0.088100
     10 C9          -3.2680    -1.3620     0.9390 c3         1 MOL       0.088100
     11 C10         -4.9430     0.1110    -0.1360 c3         1 MOL       0.088100
     12 C11         -0.4270     0.3910     1.2370 ca         1 MOL      -0.100500
     13 C12          0.9520     0.1670     1.2370 ca         1 MOL      -0.122500
     14 C13          5.4390     1.0540     0.6500 c3         1 MOL      -0.097100
     15 H1           3.6830     1.0380     1.8790 hc         1 MOL       0.044700
     16 H2           3.5750     2.0810     0.4680 hc         1 MOL       0.044700
     17 C14          3.5350    -1.4140     0.5270 c3         1 MOL      -0.091100
     18 H3           3.5310     0.0480    -1.0200 hc         1 MOL       0.067700
     19 H4           1.5620     0.5930    -2.0820 ha         1 MOL       0.158500
     20 H5          -0.8480     0.9930    -2.0920 ha         1 MOL       0.135000
     21 H6          -2.9040     1.3560     0.9920 hx         1 MOL       0.098700
     22 H7          -2.8600     1.6160    -0.7510 hx         1 MOL       0.098700
     23 H8          -3.3100    -0.2390    -2.2960 hx         1 MOL       0.100478
     24 H9          -2.1970    -1.4150    -1.5050 hx         1 MOL       0.100478
     25 H10         -3.9350    -1.7990    -1.6630 hx         1 MOL       0.100478
     26 H11         -2.2560    -1.7680     0.8580 hx         1 MOL       0.100478
     27 H12         -3.4140    -0.8670     1.9030 hx         1 MOL       0.100478
     28 H13         -3.9970    -2.1690     0.8130 hx         1 MOL       0.100478
     29 H14         -5.5840    -0.7630    -0.2830 hx         1 MOL       0.100478
     30 H15         -5.0990     0.8350    -0.9420 hx         1 MOL       0.100478
     31 H16         -5.1430     0.5700     0.8370 hx         1 MOL       0.100478
     32 H17         -0.9550     0.3520     2.1880 ha         1 MOL       0.135000
     33 H18          1.4540    -0.0450     2.1800 ha         1 MOL       0.158500
     34 H19          5.8950     1.9140     1.1510 hc         1 MOL       0.043367
     35 H20          5.8640     0.1490     1.0940 hc         1 MOL       0.043367
     36 H21          5.7230     1.0890    -0.4070 hc         1 MOL       0.043367
     37 H22          2.9450    -2.1720    -0.0020 hc         1 MOL       0.044700
     38 H23          3.3350    -1.5240     1.5980 hc         1 MOL       0.044700
     39 H24          4.5910    -1.6480     0.3580 hc         1 MOL       0.044700
@<TRIPOS>BOND
     1     1     2 1   
     2     2     3 1   
     3     3     4 ar  
     4     4     5 ar  
     5     5     6 ar  
     6     6     7 1   
     7     7     8 1   
     8     8     9 1   
     9     8    10 1   
    10     8    11 1   
    11     6    12 ar  
    12    12    13 ar  
    13    13     3 ar  
    14     1    14 1   
    15     1    15 1   
    16     1    16 1   
    17     2    17 1   
    18     2    18 1   
    19     4    19 1   
    20     5    20 1   
    21     7    21 1   
    22     7    22 1   
    23     9    23 1   
    24     9    24 1   
    25     9    25 1   
    26    10    26 1   
    27    10    27 1   
    28    10    28 1   
    29    11    29 1   
    30    11    30 1   
    31    11    31 1   
    32    12    32 1   
    33    13    33 1   
    34    14    34 1   
    35    14    35 1   
    36    14    36 1   
    37    17    37 1   
    38    17    38 1   
    39    17    39 1   
@<TRIPOS>SUBSTRUCTURE
     1 MOL         1 TEMP              0 ****  ****    0 ROOT
