@<TRIPOS>MOLECULE
MOL
   39    39     1     0     0
SMALL
bcc


@<TRIPOS>ATOM
      1 C1           3.9310     1.0920     0.7930 c3         1 MOL      -0.074400
      2 C2           3.1940    -0.0170     0.0150 c3         1 MOL      -0.038400
      3 C3           1.6880     0.2200     0.0400 ca         1 MOL      -0.013300
      4 C4           1.0100     0.5120    -1.1500 ca         1 MOL      -0.122500
      5 C5          -0.3690     0.7410    -1.1500 ca         1 MOL      -0.100500
      6 C6          -1.1040     0.6760     0.0420 ca         1 MOL      -0.190300
      7 C7          -2.5940     0.9090     0.0420 c3         1 MOL       0.186100
      8 N1          -3.4890    -0.3330    -0.1550 n4         1 MOL      -0.606800
      9 C8          -3.2140    -0.9970    -1.4970 c3         1 MOL       0.088100
     10 C9          -3.2690    -1.3470     0.9570 c3         1 MOL       0.088100
     11 C10         -4.9440     0.1240    -0.1230 c3         1 MOL       0.088100
     12 C11         -0.4220     0.4000     1.2360 ca         1 MOL      -0.100500
     13 C12          0.9560     0.1720     1.2330 ca         1 MOL      -0.122500
     14 C13          5.4440     1.0420     0.6270 c3         1 MOL      -0.097100
     15 H1           3.6910     1.0390     1.8620 hc         1 MOL       0.044700
     16 H2           3.5820     2.0730     0.4440 hc         1 MOL       0.044700
     17 C14          3.5320    -1.4220     0.5260 c3         1 MOL      -0.091100
     18 H3           3.5280     0.0310    -1.0310 hc         1 MOL       0.067700
     19 H4           1.5570     0.5740    -2.0900 ha         1 MOL       0.158500
     20 H5          -0.8510     0.9810    -2.0950 ha         1 MOL       0.135000
     21 H6          -2.8970     1.3700     0.9910 hx         1 MOL       0.098700
     22 H7          -2.8580     1.6190    -0.7530 hx         1 MOL       0.098700
     23 H8          -3.3180    -0.2450    -2.2840 hx         1 MOL       0.100478
     24 H9          -2.2060    -1.4190    -1.4890 hx         1 MOL       0.100478
     25 H10         -3.9460    -1.7990    -1.6400 hx         1 MOL       0.100478
     26 H11         -2.2590    -1.7570     0.8760 hx         1 MOL       0.100478
     27 H12         -3.4120    -0.8450     1.9190 hx         1 MOL       0.100478
     28 H13         -4.0010    -2.1530     0.8390 hx         1 MOL       0.100478
     29 H14         -5.5870    -0.7500    -0.2620 hx         1 MOL       0.100478
     30 H15         -5.1000     0.8430    -0.9320 hx         1 MOL       0.100478
     31 H16         -5.1390     0.5890     0.8480 hx         1 MOL       0.100478
     32 H17         -0.9480     0.3680     2.1890 ha         1 MOL       0.135000
     33 H18          1.4600    -0.0350     2.1760 ha         1 MOL       0.158500
     34 H19          5.9030     1.9030     1.1220 hc         1 MOL       0.043367
     35 H20          5.8670     0.1390     1.0760 hc         1 MOL       0.043367
     36 H21          5.7250     1.0690    -0.4300 hc         1 MOL       0.043367
     37 H22          2.9390    -2.1810     0.0040 hc         1 MOL       0.044700
     38 H23          3.3350    -1.5240     1.5980 hc         1 MOL       0.044700
     39 H24          4.5870    -1.6590     0.3560 hc         1 MOL       0.044700
@<TRIPOS>BOND
     1     1     2 1   
     2     2     3 1   
     3     3     4 ar  
     4     4     5 ar  
     5     5     6 ar  
     6     6     7 1   
     7     7     8 1   
     8     8     9 1   
     9     8    10 1   
    10     8    11 1   
    11     6    12 ar  
    12    12    13 ar  
    13    13     3 ar  
    14     1    14 1   
    15     1    15 1   
    16     1    16 1   
    17     2    17 1   
    18     2    18 1   
    19     4    19 1   
    20     5    20 1   
    21     7    21 1   
    22     7    22 1   
    23     9    23 1   
    24     9    24 1   
    25     9    25 1   
    26    10    26 1   
    27    10    27 1   
    28    10    28 1   
    29    11    29 1   
    30    11    30 1   
    31    11    31 1   
    32    12    32 1   
    33    13    33 1   
    34    14    34 1   
    35    14    35 1   
    36    14    36 1   
    37    17    37 1   
    38    17    38 1   
    39    17    39 1   
@<TRIPOS>SUBSTRUCTURE
     1 MOL         1 TEMP              0 ****  ****    0 ROOT
