
     RDKit          3D

 39 39  0  0  0  0  0  0  0  0999 V2000
    3.9307    1.0917    0.7929 C   0  0  0  0  0  0  0  0  0  0  0  0
    3.1936   -0.0167    0.0146 C   0  0  0  0  0  0  0  0  0  0  0  0
    1.6885    0.2201    0.0396 C   0  0  0  0  0  0  0  0  0  0  0  0
    1.0097    0.5125   -1.1504 C   0  0  0  0  0  0  0  0  0  0  0  0
   -0.3688    0.7410   -1.1499 C   0  0  0  0  0  0  0  0  0  0  0  0
   -1.1041    0.6762    0.0421 C   0  0  0  0  0  0  0  0  0  0  0  0
   -2.5936    0.9090    0.0420 C   0  0  0  0  0  0  0  0  0  0  0  0
   -3.4886   -0.3332   -0.1553 N   0  0  0  0  0  0  0  0  0  0  0  0
   -3.2143   -0.9971   -1.4966 C   0  0  0  0  0  0  0  0  0  0  0  0
   -3.2692   -1.3475    0.9574 C   0  0  0  0  0  0  0  0  0  0  0  0
   -4.9436    0.1239   -0.1226 C   0  0  0  0  0  0  0  0  0  0  0  0
   -0.4225    0.3998    1.2358 C   0  0  0  0  0  0  0  0  0  0  0  0
    0.9560    0.1716    1.2330 C   0  0  0  0  0  0  0  0  0  0  0  0
    5.4435    1.0415    0.6270 C   0  0  0  0  0  0  0  0  0  0  0  0
    3.6909    1.0389    1.8620 H   0  0  0  0  0  0  0  0  0  0  0  0
    3.5821    2.0727    0.4444 H   0  0  0  0  0  0  0  0  0  0  0  0
    3.5318   -1.4218    0.5256 C   0  0  0  0  0  0  0  0  0  0  0  0
    3.5282    0.0308   -1.0307 H   0  0  0  0  0  0  0  0  0  0  0  0
    1.5568    0.5737   -2.0904 H   0  0  0  0  0  0  0  0  0  0  0  0
   -0.8513    0.9809   -2.0955 H   0  0  0  0  0  0  0  0  0  0  0  0
   -2.8972    1.3697    0.9911 H   0  0  0  0  0  0  0  0  0  0  0  0
   -2.8581    1.6186   -0.7529 H   0  0  0  0  0  0  0  0  0  0  0  0
   -3.3178   -0.2452   -2.2844 H   0  0  0  0  0  0  0  0  0  0  0  0
   -2.2062   -1.4192   -1.4889 H   0  0  0  0  0  0  0  0  0  0  0  0
   -3.9456   -1.7987   -1.6402 H   0  0  0  0  0  0  0  0  0  0  0  0
   -2.2591   -1.7570    0.8761 H   0  0  0  0  0  0  0  0  0  0  0  0
   -3.4118   -0.8453    1.9187 H   0  0  0  0  0  0  0  0  0  0  0  0
   -4.0011   -2.1526    0.8389 H   0  0  0  0  0  0  0  0  0  0  0  0
   -5.5874   -0.7499   -0.2618 H   0  0  0  0  0  0  0  0  0  0  0  0
   -5.0997    0.8432   -0.9321 H   0  0  0  0  0  0  0  0  0  0  0  0
   -5.1395    0.5891    0.8481 H   0  0  0  0  0  0  0  0  0  0  0  0
   -0.9476    0.3685    2.1886 H   0  0  0  0  0  0  0  0  0  0  0  0
    1.4597   -0.0355    2.1761 H   0  0  0  0  0  0  0  0  0  0  0  0
    5.9034    1.9032    1.1216 H   0  0  0  0  0  0  0  0  0  0  0  0
    5.8669    0.1385    1.0763 H   0  0  0  0  0  0  0  0  0  0  0  0
    5.7246    1.0690   -0.4304 H   0  0  0  0  0  0  0  0  0  0  0  0
    2.9386   -2.1814    0.0038 H   0  0  0  0  0  0  0  0  0  0  0  0
    3.3351   -1.5238    1.5983 H   0  0  0  0  0  0  0  0  0  0  0  0
    4.5867   -1.6594    0.3557 H   0  0  0  0  0  0  0  0  0  0  0  0
  1  2  1  0
  2  3  1  0
  3  4  1  0
  4  5  2  0
  5  6  1  0
  6  7  1  0
  7  8  1  0
  8  9  1  0
  8 10  1  0
  8 11  1  0
  6 12  2  0
 12 13  1  0
 13  3  2  0
  1 14  1  0
  1 15  1  0
  1 16  1  0
  2 17  1  0
  2 18  1  0
  4 19  1  0
  5 20  1  0
  7 21  1  0
  7 22  1  0
  9 23  1  0
  9 24  1  0
  9 25  1  0
 10 26  1  0
 10 27  1  0
 10 28  1  0
 11 29  1  0
 11 30  1  0
 11 31  1  0
 12 32  1  0
 13 33  1  0
 14 34  1  0
 14 35  1  0
 14 36  1  0
 17 37  1  0
 17 38  1  0
 17 39  1  0
M  CHG  1   8   1
M  END
