@<TRIPOS>MOLECULE
POL
  248   267     1     0     0
SMALL
USER_CHARGES


@<TRIPOS>ATOM
      1 C1        -24.5167    7.5124   -1.0013 ca          1 POL        -0.029353
      2 C2        -23.3305    6.8432   -1.3296 ca          1 POL        -0.137553
      3 C3        -22.8260    5.8425   -0.4949 ca          1 POL        -0.072053
      4 C4        -23.5229    5.4880    0.6659 ca          1 POL        -0.178653
      5 C5        -23.0196    4.4387    1.5849 c           1 POL         0.587300
      6 C6        -22.3364    3.2200    1.0841 ca          1 POL        -0.153653
      7 C7        -21.3347    2.6487    1.8792 ca          1 POL        -0.054553
      8 C8        -20.7003    1.4701    1.4793 ca          1 POL        -0.157553
      9 C9        -21.0730    0.8531    0.2819 ca          1 POL         0.103047
     10 O1        -20.5675   -0.3503   -0.1631 os          1 POL        -0.303200
     11 C10       -19.2876   -0.6826    0.2157 ca          1 POL         0.088047
     12 C11       -19.0865   -1.7341    1.1217 ca          1 POL        -0.131353
     13 C12       -20.2403   -2.4538    1.7661 c3          1 POL         0.093547
     14 N1        -20.9317   -3.2835    0.7812 na          1 POL        -0.017100
     15 C13       -22.1358   -2.9898    0.2662 cc          1 POL        -0.007653
     16 N2        -22.4785   -3.9883   -0.5606 na          1 POL        -0.029100
     17 C14       -23.7314   -4.0597   -1.3021 c3          1 POL         0.005547
     18 C15       -21.4646   -4.9314   -0.5898 cc          1 POL        -0.120353
     19 C16       -20.4898   -4.4885    0.2590 cd          1 POL        -0.113353
     20 C17       -17.7645   -2.0749    1.4575 ca          1 POL        -0.110053
     21 C18       -16.6765   -1.3898    0.9002 ca          1 POL         0.134047
     22 O2        -15.4391   -1.7779    1.3662 os          1 POL        -0.317900
     23 C19       -16.9002   -0.3460    0.0014 ca          1 POL        -0.143053
     24 C20       -18.2057   -0.0047   -0.3556 ca          1 POL        -0.112053
     25 C21       -22.0823    1.4142   -0.5069 ca          1 POL        -0.157553
     26 C22       -22.7153    2.5957   -0.1093 ca          1 POL        -0.054553
     27 O3        -23.1755    4.5654    2.7965 o           1 POL        -0.514100
     28 C23       -24.7023    6.1589    1.0049 ca          1 POL        -0.072053
     29 C24       -25.2024    7.1577    0.1672 ca          1 POL        -0.137553
     30 C25       -25.0717    8.5686   -1.9126 c3          1 POL        -0.058853
     31 H1        -22.7861    7.1114   -2.2331 ha          1 POL         0.148947
     32 H2        -21.8821    5.3697   -0.7536 ha          1 POL         0.150447
     33 H3        -21.0584    3.1189    2.8229 ha          1 POL         0.170447
     34 H4        -19.9353    1.0528    2.1272 ha          1 POL         0.153447
     35 H5        -19.8998   -3.1066    2.5794 h1          1 POL         0.110147
     36 H6        -20.9445   -1.7386    2.2067 h1          1 POL         0.110147
     37 H7        -22.7295   -2.1098    0.4867 h5          1 POL         0.281947
     38 H8        -24.2237   -3.0835   -1.2900 h1          1 POL         0.098980
     39 H9        -24.3800   -4.8022   -0.8303 h1          1 POL         0.098980
     40 H10       -23.5256   -4.3451   -2.3366 h1          1 POL         0.098980
     41 H11       -21.5739   -5.8023   -1.2138 h4          1 POL         0.235947
     42 H12       -19.5327   -4.8760    0.5638 h4          1 POL         0.234947
     43 H13       -17.5632   -2.8692    2.1757 ha          1 POL         0.166947
     44 H14       -16.0765    0.2234   -0.4208 ha          1 POL         0.169947
     45 H15       -18.3764    0.8013   -1.0660 ha          1 POL         0.174947
     46 H16       -22.3871    0.9323   -1.4322 ha          1 POL         0.153447
     47 H17       -23.5173    3.0016   -0.7232 ha          1 POL         0.170447
     48 H18       -25.2348    5.9093    1.9217 ha          1 POL         0.150447
     49 H19       -26.1263    7.6656    0.4385 ha          1 POL         0.148947
     50 C26       -14.3256   -1.5112    0.6076 ca          1 POL        -0.029353
     51 C27       -14.1660   -2.0238   -0.6799 ca          1 POL        -0.137553
     52 C28       -12.9771   -1.7854   -1.3755 ca          1 POL        -0.072053
     53 C29       -11.9365   -1.0546   -0.7802 ca          1 POL        -0.178653
     54 C30       -10.6760   -0.8750   -1.5495 c           1 POL         0.587300
     55 C31        -9.5132   -0.1870   -0.9725 ca          1 POL        -0.153653
     56 C32        -9.3998    1.1995   -1.0845 ca          1 POL        -0.054553
     57 C33        -8.2152    1.8197   -0.6813 ca          1 POL        -0.157553
     58 C34        -7.1463    1.0583   -0.1894 ca          1 POL         0.103047
     59 O4         -5.9906    1.7735    0.0521 os          1 POL        -0.303200
     60 C35        -4.8756    1.0831    0.4618 ca          1 POL         0.088047
     61 C36        -3.8816    0.7136   -0.4599 ca          1 POL        -0.131353
     62 C37        -4.0076    1.0227   -1.9301 c3          1 POL         0.093547
     63 N3         -4.7611   -0.0361   -2.6090 na          1 POL        -0.017100
     64 C38        -5.9876    0.1303   -3.1318 cc          1 POL        -0.007653
     65 N4         -6.3783   -1.0466   -3.6412 na          1 POL        -0.029100
     66 C39        -7.6834   -1.3003   -4.2450 c3          1 POL         0.005547
     67 C40        -5.3595   -1.9712   -3.4987 cc          1 POL        -0.120353
     68 C41        -4.3343   -1.3326   -2.8590 cd          1 POL        -0.113353
     69 C42        -2.7423    0.0361    0.0224 ca          1 POL        -0.110053
     70 C43        -2.5999   -0.2426    1.3876 ca          1 POL         0.134047
     71 O5         -1.5533   -0.9321    1.9604 os          1 POL        -0.317900
     72 C44        -3.5935    0.1579    2.2836 ca          1 POL        -0.143053
     73 C45        -4.7226    0.8323    1.8276 ca          1 POL        -0.112053
     74 C46        -7.2865   -0.3279   -0.0516 ca          1 POL        -0.157553
     75 C47        -8.4669   -0.9543   -0.4555 ca          1 POL        -0.054553
     76 O6        -10.5361   -1.3142   -2.6885 o           1 POL        -0.514100
     77 C48       -12.0988   -0.5609    0.5210 ca          1 POL        -0.072053
     78 C49       -13.2924   -0.7938    1.2127 ca          1 POL        -0.137553
     79 H20       -14.9498   -2.6196   -1.1406 ha          1 POL         0.148947
     80 H21       -12.8604   -2.1890   -2.3805 ha          1 POL         0.150447
     81 H22       -10.2080    1.7926   -1.5081 ha          1 POL         0.170447
     82 H23        -8.1146    2.8999   -0.7771 ha          1 POL         0.153447
     83 H24        -3.0201    1.0977   -2.4013 h1          1 POL         0.110147
     84 H25        -4.5068    1.9848   -2.0883 h1          1 POL         0.110147
     85 H26        -6.5663    1.0464   -3.1328 h5          1 POL         0.281947
     86 H27        -7.5430   -1.5567   -5.2990 h1          1 POL         0.098980
     87 H28        -8.3064   -0.4065   -4.1697 h1          1 POL         0.098980
     88 H29        -8.1604   -2.1320   -3.7214 h1          1 POL         0.098980
     89 H30        -5.5013   -2.9703   -3.8744 h4          1 POL         0.235947
     90 H31        -3.3533   -1.6391   -2.5392 h4          1 POL         0.234947
     91 H32        -1.9679   -0.2693   -0.6774 ha          1 POL         0.166947
     92 H33        -3.4834   -0.0506    3.3461 ha          1 POL         0.169947
     93 H34        -5.4822    1.1561    2.5354 ha          1 POL         0.174947
     94 H35        -6.4806   -0.9483    0.3312 ha          1 POL         0.153447
     95 H36        -8.5557   -2.0366   -0.3934 ha          1 POL         0.170447
     96 H37       -11.3127   -0.0050    1.0238 ha          1 POL         0.150447
     97 H38       -13.4118   -0.4258    2.2291 ha          1 POL         0.148947
     98 C50        -0.3967   -1.0871    1.2406 ca          1 POL        -0.029353
     99 C51         0.5552   -0.0646    1.2144 ca          1 POL        -0.137553
    100 C52         1.7704   -0.2683    0.5560 ca          1 POL        -0.072053
    101 C53         2.0227   -1.5015   -0.0548 ca          1 POL        -0.178653
    102 C54         3.2952   -1.7489   -0.7596 c           1 POL         0.587300
    103 C55         4.5964   -1.7848   -0.0309 ca          1 POL        -0.153653
    104 C56         4.6755   -1.7973    1.3678 ca          1 POL        -0.054553
    105 C57         5.9214   -1.8733    2.0006 ca          1 POL        -0.157553
    106 C58         7.0931   -1.9341    1.2437 ca          1 POL         0.103047
    107 O7          8.2731   -2.0878    1.9338 os          1 POL        -0.303200
    108 C59         9.3449   -1.2830    1.6010 ca          1 POL         0.088047
    109 C60        10.6324   -1.8417    1.7097 ca          1 POL        -0.131353
    110 C61        10.8321   -3.2805    2.1096 c3          1 POL         0.093547
    111 N5         10.9436   -3.3627    3.5663 na          1 POL        -0.017100
    112 C62         9.8968   -3.4916    4.3947 cc          1 POL        -0.007653
    113 N6         10.3742   -3.5536    5.6475 na          1 POL        -0.029100
    114 C63         9.5532   -3.6920    6.8438 c3          1 POL         0.005547
    115 C64        11.7545   -3.4471    5.6205 cc          1 POL        -0.120353
    116 C65        12.1147   -3.3333    4.3074 cd          1 POL        -0.113353
    117 C66        11.7546   -1.0218    1.4725 ca          1 POL        -0.110053
    118 C67        11.5921    0.3183    1.1122 ca          1 POL         0.134047
    119 O8         12.6328    1.2002    0.9444 os          1 POL        -0.317900
    120 C68        10.3112    0.8624    1.0259 ca          1 POL        -0.143053
    121 C69         9.1900    0.0691    1.2754 ca          1 POL        -0.112053
    122 C70         7.0247   -1.9444   -0.1498 ca          1 POL        -0.157553
    123 C71         5.7791   -1.8621   -0.7828 ca          1 POL        -0.054553
    124 O9          3.2447   -1.9522   -1.9685 o           1 POL        -0.514100
    125 C72         1.0630   -2.5204   -0.0361 ca          1 POL        -0.072053
    126 C73        -0.1442   -2.3180    0.6322 ca          1 POL        -0.137553
    127 H39         0.3562    0.8796    1.7153 ha          1 POL         0.148947
    128 H40         2.5076    0.5304    0.5222 ha          1 POL         0.150447
    129 H41         3.7832   -1.7706    1.9874 ha          1 POL         0.170447
    130 H42         5.9703   -1.8867    3.0868 ha          1 POL         0.153447
    131 H43        10.0061   -3.9182    1.7759 h1          1 POL         0.110147
    132 H44        11.7441   -3.6875    1.6568 h1          1 POL         0.110147
    133 H45         8.8527   -3.5466    4.1067 h5          1 POL         0.281947
    134 H46        10.0593   -4.3405    7.5637 h1          1 POL         0.098980
    135 H47         9.3964   -2.7020    7.2797 h1          1 POL         0.098980
    136 H48         8.5886   -4.1332    6.5787 h1          1 POL         0.098980
    137 H49        12.3032   -3.4698    6.5469 h4          1 POL         0.235947
    138 H50        13.0590   -3.2316    3.8004 h4          1 POL         0.234947
    139 H51        12.7581   -1.4262    1.5858 ha          1 POL         0.166947
    140 H52        10.1852    1.9158    0.7814 ha          1 POL         0.169947
    141 H53         8.2058    0.5297    1.2319 ha          1 POL         0.174947
    142 H54         7.9229   -2.0289   -0.7564 ha          1 POL         0.153447
    143 H55         5.7329   -1.8760   -1.8718 ha          1 POL         0.170447
    144 H56         1.2627   -3.4701   -0.5278 ha          1 POL         0.150447
    145 H57        -0.8795   -3.1163    0.6850 ha          1 POL         0.148947
    146 C74        13.7777    0.8051    0.2936 ca          1 POL        -0.029353
    147 C75        13.8019   -0.0445   -0.8120 ca          1 POL        -0.137553
    148 C76        15.0185   -0.3289   -1.4447 ca          1 POL        -0.072053
    149 C77        16.2161    0.2521   -0.9976 ca          1 POL        -0.178653
    150 C78        17.4680   -0.0433   -1.7542 c           1 POL         0.587300
    151 C79        18.8173    0.2639   -1.2228 ca          1 POL        -0.153653
    152 C80        19.1928   -0.0893    0.0782 ca          1 POL        -0.054553
    153 C81        20.4858    0.1938    0.5275 ca          1 POL        -0.157553
    154 C82        21.3978    0.8267   -0.3199 ca          1 POL         0.103047
    155 O10        22.6691    1.0322    0.1602 os          1 POL        -0.303200
    156 C83        23.1942    2.3098    0.1413 ca          1 POL         0.088047
    157 C84        24.6099    2.4428    0.1635 ca          1 POL        -0.131353
    158 C85        25.4870    1.2022    0.1353 c3          1 POL         0.093547
    159 N7         25.8208    0.8823   -1.2538 na          1 POL        -0.017100
    160 C86        26.8205    1.4498   -1.9452 cc          1 POL        -0.007653
    161 N8         26.8282    0.9048   -3.1704 na          1 POL        -0.029100
    162 C87        27.7750    1.2471   -4.2249 c3          1 POL         0.005547
    163 C88        25.8110   -0.0298   -3.2655 cc          1 POL        -0.120353
    164 C89        25.1715   -0.0408   -2.0578 cd          1 POL        -0.113353
    165 C90        25.2285    3.7441    0.2445 ca          1 POL        -0.110053
    166 C91        24.4617    4.9096    0.3179 ca          1 POL         0.134047
    167 O11        24.9429    6.1426    0.7540 os          1 POL        -0.317900
    168 C92        23.0567    4.7524    0.2908 ca          1 POL        -0.143053
    169 C93        22.4214    3.4795    0.1965 ca          1 POL        -0.112053
    170 C94        21.0436    1.1373   -1.6344 ca          1 POL        -0.157553
    171 C95        19.7509    0.8563   -2.0843 ca          1 POL        -0.054553
    172 O12        17.3947   -0.5505   -2.8708 o           1 POL        -0.514100
    173 C96        16.1762    1.1372    0.0854 ca          1 POL        -0.072053
    174 C97        14.9623    1.4048    0.7293 ca          1 POL        -0.137553
    175 H58        12.8867   -0.4670   -1.2163 ha          1 POL         0.148947
    176 H59        15.0234   -0.9842   -2.3153 ha          1 POL         0.150447
    177 H60        18.5007   -0.6041    0.7399 ha          1 POL         0.170447
    178 H61        20.7826   -0.0846    1.5360 ha          1 POL         0.153447
    179 H62        25.0188    0.3350    0.6120 h1          1 POL         0.110147
    180 H63        26.4177    1.3933    0.6823 h1          1 POL         0.110147
    181 H64        27.5024    2.2103   -1.5807 h5          1 POL         0.281947
    182 H65        27.2426    1.3382   -5.1754 h1          1 POL         0.098980
    183 H66        28.5286    0.4584   -4.2925 h1          1 POL         0.098980
    184 H67        28.2593    2.1990   -3.9912 h1          1 POL         0.098980
    185 H68        25.6754   -0.5675   -4.1883 h4          1 POL         0.235947
    186 H69        24.3357   -0.5916   -1.6617 h4          1 POL         0.234947
    187 H70        26.3077    3.8226    0.3429 ha          1 POL         0.166947
    188 H71        22.4287    5.6362    0.4089 ha          1 POL         0.169947
    189 H72        21.3188    3.4116    0.2166 ha          1 POL         0.174947
    190 H73        21.7605    1.5918   -2.3125 ha          1 POL         0.153447
    191 H74        19.4712    1.0920   -3.1097 ha          1 POL         0.170447
    192 H75        17.0656    1.6594    0.4258 ha          1 POL         0.150447
    193 H76        14.9374    2.1094    1.5579 ha          1 POL         0.148947
    194 C98        25.9081    6.9241    0.1217 ca          1 POL        -0.029353
    195 C99        25.4960    8.1440   -0.4328 ca          1 POL        -0.137553
    196 C100       26.4171    9.2015   -0.7139 ca          1 POL        -0.072053
    197 C101       27.7953    9.1030   -0.4385 ca          1 POL        -0.178653
    198 C102       28.7076   10.3402   -0.7218 c           1 POL         0.587300
    199 C103       30.0904   10.4806   -0.1982 ca          1 POL        -0.153653
    200 C104       30.4488   10.0296    1.0781 ca          1 POL        -0.054553
    201 C105       31.7534   10.2185    1.5433 ca          1 POL        -0.157553
    202 C106       32.6901   10.8809    0.7475 ca          1 POL         0.103047
    203 O13        33.9609   11.0161    1.2616 os          1 POL        -0.303200
    204 C107       34.5666   12.2476    1.1236 ca          1 POL         0.088047
    205 C108       35.8798   12.2881    0.6279 ca          1 POL        -0.131353
    206 C109       36.6119   11.0334    0.2431 c3          1 POL         0.093547
    207 N9         37.1407   10.4031    1.4539 na          1 POL        -0.017100
    208 C110       38.1286   10.9097    2.2064 cc          1 POL        -0.007653
    209 N10        38.3368   10.0637    3.2268 na          1 POL        -0.029100
    210 C111       39.3261   10.2612    4.2776 c3          1 POL         0.005547
    211 C112       37.4460    9.0071    3.1377 cc          1 POL        -0.120353
    212 C113       36.6920    9.2202    2.0188 cd          1 POL        -0.113353
    213 C114       36.5151   13.5362    0.5188 ca          1 POL        -0.110053
    214 C115       35.8701   14.7152    0.9071 ca          1 POL         0.134047
    215 O14        36.6238   15.8435    0.7478 os          1 POL        -0.317900
    216 C116       34.5748   14.6554    1.4185 ca          1 POL        -0.143053
    217 C117       33.9219   13.4220    1.5345 ca          1 POL        -0.112053
    218 C118       32.3405   11.3259   -0.5298 ca          1 POL        -0.157553
    219 C119       31.0375   11.1370   -0.9950 ca          1 POL        -0.054553
    220 O15        28.2613   11.2184   -1.4552 o           1 POL        -0.514100
    221 C120       28.2104    7.8540    0.0667 ca          1 POL        -0.072053
    222 C121       27.2803    6.7939    0.3678 ca          1 POL        -0.137553
    223 H77        24.4340    8.3325   -0.5854 ha          1 POL         0.148947
    224 H78        26.0208   10.1352   -1.1171 ha          1 POL         0.150447
    225 H79        29.7194    9.5531    1.7291 ha          1 POL         0.170447
    226 H80        32.0261    9.8704    2.5362 ha          1 POL         0.153447
    227 H81        37.4549   11.2516   -0.4229 h1          1 POL         0.110147
    228 H82        35.9560   10.3366   -0.2904 h1          1 POL         0.110147
    229 H83        38.6643   11.8347    2.0251 h5          1 POL         0.281947
    230 H84        40.0901   10.9653    3.9373 h1          1 POL         0.098980
    231 H85        38.8253   10.6616    5.1629 h1          1 POL         0.098980
    232 H86        39.7998    9.3054    4.5174 h1          1 POL         0.098980
    233 H87        37.4643    8.2378    3.8904 h4          1 POL         0.235947
    234 H88        35.8837    8.6850    1.5507 h4          1 POL         0.234947
    235 H89        37.5269   13.6181    0.1218 ha          1 POL         0.166947
    236 C122       35.9935   17.0900    1.0273 c3          1 POL         0.114647
    237 H90        34.0553   15.5559    1.7375 ha          1 POL         0.169947
    238 H91        32.9156   13.3873    1.9467 ha          1 POL         0.174947
    239 H92        33.0602   11.8287   -1.1695 ha          1 POL         0.153447
    240 H93        30.7564   11.5067   -1.9804 ha          1 POL         0.170447
    241 H94        29.2617    7.6716    0.2757 ha          1 POL         0.150447
    242 H95        27.6550    5.9071    0.8723 ha          1 POL         0.148947
    243 H96       -25.6249    9.3237   -1.3442 hc          1 POL         0.060980
    244 H97       -24.2673    9.0877   -2.4443 hc          1 POL         0.060980
    245 H98       -25.7445    8.1133   -2.6458 hc          1 POL         0.060980
    246 H99        35.7317   17.1671    2.0876 hc          1 POL         0.060980
    247 H100       36.7109   17.8849    0.8016 hc          1 POL         0.060980
    248 H101       35.1157   17.2406    0.3903 hc          1 POL         0.060980
@<TRIPOS>BOND
     1     1     2 ar  
     2     2     3 ar  
     3     3     4 ar  
     4     4     5 1   
     5     5     6 1   
     6     6     7 ar  
     7     7     8 ar  
     8     8     9 ar  
     9     9    10 1   
    10    10    11 1   
    11    11    12 ar  
    12    12    13 1   
    13    13    14 1   
    14    14    15 ar  
    15    15    16 ar  
    16    16    17 1   
    17    16    18 ar  
    18    18    19 ar  
    19    12    20 ar  
    20    20    21 ar  
    21    21    22 1   
    22    21    23 ar  
    23    23    24 ar  
    24     9    25 ar  
    25    25    26 ar  
    26     5    27 2   
    27     4    28 ar  
    28    28    29 ar  
    29    29     1 ar  
    30    26     6 ar  
    31    24    11 ar  
    32    19    14 ar  
    33     1    30 1   
    34     2    31 1   
    35     3    32 1   
    36     7    33 1   
    37     8    34 1   
    38    13    35 1   
    39    13    36 1   
    40    15    37 1   
    41    17    38 1   
    42    17    39 1   
    43    17    40 1   
    44    18    41 1   
    45    19    42 1   
    46    20    43 1   
    47    23    44 1   
    48    24    45 1   
    49    25    46 1   
    50    26    47 1   
    51    28    48 1   
    52    29    49 1   
    53    50    51 ar  
    54    51    52 ar  
    55    52    53 ar  
    56    53    54 1   
    57    54    55 1   
    58    55    56 ar  
    59    56    57 ar  
    60    57    58 ar  
    61    58    59 1   
    62    59    60 1   
    63    60    61 ar  
    64    61    62 1   
    65    62    63 1   
    66    63    64 ar  
    67    64    65 ar  
    68    65    66 1   
    69    65    67 ar  
    70    67    68 ar  
    71    61    69 ar  
    72    69    70 ar  
    73    70    71 1   
    74    70    72 ar  
    75    72    73 ar  
    76    58    74 ar  
    77    74    75 ar  
    78    54    76 2   
    79    53    77 ar  
    80    77    78 ar  
    81    78    50 ar  
    82    75    55 ar  
    83    73    60 ar  
    84    68    63 ar  
    85    51    79 1   
    86    52    80 1   
    87    56    81 1   
    88    57    82 1   
    89    62    83 1   
    90    62    84 1   
    91    64    85 1   
    92    66    86 1   
    93    66    87 1   
    94    66    88 1   
    95    67    89 1   
    96    68    90 1   
    97    69    91 1   
    98    72    92 1   
    99    73    93 1   
   100    74    94 1   
   101    75    95 1   
   102    77    96 1   
   103    78    97 1   
   104    98    99 ar  
   105    99   100 ar  
   106   100   101 ar  
   107   101   102 1   
   108   102   103 1   
   109   103   104 ar  
   110   104   105 ar  
   111   105   106 ar  
   112   106   107 1   
   113   107   108 1   
   114   108   109 ar  
   115   109   110 1   
   116   110   111 1   
   117   111   112 ar  
   118   112   113 ar  
   119   113   114 1   
   120   113   115 ar  
   121   115   116 ar  
   122   109   117 ar  
   123   117   118 ar  
   124   118   119 1   
   125   118   120 ar  
   126   120   121 ar  
   127   106   122 ar  
   128   122   123 ar  
   129   102   124 2   
   130   101   125 ar  
   131   125   126 ar  
   132   126    98 ar  
   133   123   103 ar  
   134   121   108 ar  
   135   116   111 ar  
   136    99   127 1   
   137   100   128 1   
   138   104   129 1   
   139   105   130 1   
   140   110   131 1   
   141   110   132 1   
   142   112   133 1   
   143   114   134 1   
   144   114   135 1   
   145   114   136 1   
   146   115   137 1   
   147   116   138 1   
   148   117   139 1   
   149   120   140 1   
   150   121   141 1   
   151   122   142 1   
   152   123   143 1   
   153   125   144 1   
   154   126   145 1   
   155   146   147 ar  
   156   147   148 ar  
   157   148   149 ar  
   158   149   150 1   
   159   150   151 1   
   160   151   152 ar  
   161   152   153 ar  
   162   153   154 ar  
   163   154   155 1   
   164   155   156 1   
   165   156   157 ar  
   166   157   158 1   
   167   158   159 1   
   168   159   160 ar  
   169   160   161 ar  
   170   161   162 1   
   171   161   163 ar  
   172   163   164 ar  
   173   157   165 ar  
   174   165   166 ar  
   175   166   167 1   
   176   166   168 ar  
   177   168   169 ar  
   178   154   170 ar  
   179   170   171 ar  
   180   150   172 2   
   181   149   173 ar  
   182   173   174 ar  
   183   174   146 ar  
   184   171   151 ar  
   185   169   156 ar  
   186   164   159 ar  
   187   147   175 1   
   188   148   176 1   
   189   152   177 1   
   190   153   178 1   
   191   158   179 1   
   192   158   180 1   
   193   160   181 1   
   194   162   182 1   
   195   162   183 1   
   196   162   184 1   
   197   163   185 1   
   198   164   186 1   
   199   165   187 1   
   200   168   188 1   
   201   169   189 1   
   202   170   190 1   
   203   171   191 1   
   204   173   192 1   
   205   174   193 1   
   206    22    50 1   
   207    71    98 1   
   208   119   146 1   
   209   194   195 ar  
   210   195   196 ar  
   211   196   197 ar  
   212   197   198 1   
   213   198   199 1   
   214   199   200 ar  
   215   200   201 ar  
   216   201   202 ar  
   217   202   203 1   
   218   203   204 1   
   219   204   205 ar  
   220   205   206 1   
   221   206   207 1   
   222   207   208 ar  
   223   208   209 ar  
   224   209   210 1   
   225   209   211 ar  
   226   211   212 ar  
   227   205   213 ar  
   228   213   214 ar  
   229   214   215 1   
   230   214   216 ar  
   231   216   217 ar  
   232   202   218 ar  
   233   218   219 ar  
   234   198   220 2   
   235   197   221 ar  
   236   221   222 ar  
   237   222   194 ar  
   238   219   199 ar  
   239   217   204 ar  
   240   212   207 ar  
   241   195   223 1   
   242   196   224 1   
   243   200   225 1   
   244   201   226 1   
   245   206   227 1   
   246   206   228 1   
   247   208   229 1   
   248   210   230 1   
   249   210   231 1   
   250   210   232 1   
   251   211   233 1   
   252   212   234 1   
   253   213   235 1   
   254   215   236 1   
   255   216   237 1   
   256   217   238 1   
   257   218   239 1   
   258   219   240 1   
   259   221   241 1   
   260   222   242 1   
   261   167   194 1   
   262    30   243 1   
   263    30   244 1   
   264    30   245 1   
   265   236   246 1   
   266   236   247 1   
   267   236   248 1   
@<TRIPOS>SUBSTRUCTURE
      1 POL          1 RESIDUE           0 ****  ****     0 ROOT
