
     RDKit          3D

 56 59  0  0  0  0  0  0  0  0999 V2000
   -7.6140    1.3784   -0.3817 C   0  0  0  0  0  0  0  0  0  0  0  0
   -6.4556    1.8492    0.2497 C   0  0  0  0  0  0  0  0  0  0  0  0
   -5.3796    0.9903    0.4898 C   0  0  0  0  0  0  0  0  0  0  0  0
   -5.4474   -0.3448    0.0771 C   0  0  0  0  0  0  0  0  0  0  0  0
   -4.3336   -1.2937    0.3214 C   0  0  0  0  0  0  0  0  0  0  0  0
   -2.9122   -0.8741    0.2253 C   0  0  0  0  0  0  0  0  0  0  0  0
   -2.4831    0.0825   -0.7027 C   0  0  0  0  0  0  0  0  0  0  0  0
   -1.1283    0.4181   -0.7823 C   0  0  0  0  0  0  0  0  0  0  0  0
   -0.1994   -0.2191    0.0431 C   0  0  0  0  0  0  0  0  0  0  0  0
    1.1148    0.1779   -0.0805 O   0  0  0  0  0  0  0  0  0  0  0  0
    2.0759   -0.8093   -0.0419 C   0  0  0  0  0  0  0  0  0  0  0  0
    3.1590   -0.6523    0.8325 C   0  0  0  0  0  0  0  0  0  0  0  0
    3.2763    0.5363    1.7451 C   0  0  0  0  0  0  0  0  0  0  0  0
    4.2346    1.4791    1.1654 N   0  0  0  0  0  0  0  0  0  0  0  0
    4.0122    2.1839    0.0457 C   0  0  0  0  0  0  0  0  0  0  0  0
    5.1003    2.9347   -0.1837 N   0  0  0  0  0  0  0  0  0  0  0  0
    5.2631    3.8337   -1.3180 C   0  0  0  0  0  0  0  0  0  0  0  0
    6.0423    2.6940    0.8025 C   0  0  0  0  0  0  0  0  0  0  0  0
    5.4944    1.7792    1.6567 C   0  0  0  0  0  0  0  0  0  0  0  0
    4.1684   -1.6298    0.8277 C   0  0  0  0  0  0  0  0  0  0  0  0
    4.1069   -2.7361   -0.0259 C   0  0  0  0  0  0  0  0  0  0  0  0
    5.1622   -3.5962    0.0881 O   0  0  0  0  0  0  0  0  0  0  0  0
    3.0302   -2.8667   -0.9000 C   0  0  0  0  0  0  0  0  0  0  0  0
    2.0204   -1.9007   -0.9154 C   0  0  0  0  0  0  0  0  0  0  0  0
   -0.6236   -1.1691    0.9760 C   0  0  0  0  0  0  0  0  0  0  0  0
   -1.9770   -1.5046    1.0559 C   0  0  0  0  0  0  0  0  0  0  0  0
   -4.5866   -2.4615    0.6051 O   0  0  0  0  0  0  0  0  0  0  0  0
   -6.6041   -0.8223   -0.5467 C   0  0  0  0  0  0  0  0  0  0  0  0
   -7.6768    0.0391   -0.7856 C   0  0  0  0  0  0  0  0  0  0  0  0
   -8.7582    2.3083   -0.6630 C   0  0  0  0  0  0  0  0  0  0  0  0
   -6.3929    2.8870    0.5710 H   0  0  0  0  0  0  0  0  0  0  0  0
   -4.5093    1.3730    1.0152 H   0  0  0  0  0  0  0  0  0  0  0  0
   -3.1862    0.5562   -1.3841 H   0  0  0  0  0  0  0  0  0  0  0  0
   -0.8018    1.1601   -1.5062 H   0  0  0  0  0  0  0  0  0  0  0  0
    2.3237    1.0562    1.8901 H   0  0  0  0  0  0  0  0  0  0  0  0
    3.6217    0.2223    2.7370 H   0  0  0  0  0  0  0  0  0  0  0  0
    3.1167    2.1529   -0.5650 H   0  0  0  0  0  0  0  0  0  0  0  0
    5.7271    4.7647   -0.9814 H   0  0  0  0  0  0  0  0  0  0  0  0
    4.2864    4.0568   -1.7557 H   0  0  0  0  0  0  0  0  0  0  0  0
    5.8979    3.3492   -2.0644 H   0  0  0  0  0  0  0  0  0  0  0  0
    6.9869    3.2090    0.7657 H   0  0  0  0  0  0  0  0  0  0  0  0
    5.8428    1.2954    2.5530 H   0  0  0  0  0  0  0  0  0  0  0  0
    5.0231   -1.5417    1.4966 H   0  0  0  0  0  0  0  0  0  0  0  0
    5.1077   -4.7908   -0.6854 C   0  0  0  0  0  0  0  0  0  0  0  0
    2.9477   -3.7036   -1.5871 H   0  0  0  0  0  0  0  0  0  0  0  0
    1.1944   -2.0101   -1.6153 H   0  0  0  0  0  0  0  0  0  0  0  0
    0.0791   -1.6655    1.6393 H   0  0  0  0  0  0  0  0  0  0  0  0
   -2.3048   -2.2639    1.7651 H   0  0  0  0  0  0  0  0  0  0  0  0
   -6.6739   -1.8658   -0.8479 H   0  0  0  0  0  0  0  0  0  0  0  0
   -8.5667   -0.3457   -1.2802 H   0  0  0  0  0  0  0  0  0  0  0  0
   -8.8192    3.0939    0.0975 H   0  0  0  0  0  0  0  0  0  0  0  0
   -9.7116    1.7697   -0.6501 H   0  0  0  0  0  0  0  0  0  0  0  0
   -8.6279    2.7748   -1.6442 H   0  0  0  0  0  0  0  0  0  0  0  0
    5.9943   -5.3852   -0.4446 H   0  0  0  0  0  0  0  0  0  0  0  0
    5.1371   -4.5658   -1.7564 H   0  0  0  0  0  0  0  0  0  0  0  0
    4.2256   -5.3874   -0.4299 H   0  0  0  0  0  0  0  0  0  0  0  0
  1  2  1  0
  2  3  2  0
  3  4  1  0
  4  5  1  0
  5  6  1  0
  6  7  1  0
  7  8  2  0
  8  9  1  0
  9 10  1  0
 10 11  1  0
 11 12  2  0
 12 13  1  0
 13 14  1  0
 14 15  2  0
 15 16  1  0
 16 17  1  0
 16 18  1  0
 18 19  2  0
 12 20  1  0
 20 21  2  0
 21 22  1  0
 21 23  1  0
 23 24  2  0
  9 25  2  0
 25 26  1  0
  5 27  2  0
  4 28  2  0
 28 29  1  0
 29  1  2  0
 26  6  2  0
 24 11  1  0
 19 14  1  0
  1 30  1  0
  2 31  1  0
  3 32  1  0
  7 33  1  0
  8 34  1  0
 13 35  1  0
 13 36  1  0
 15 37  1  0
 17 38  1  0
 17 39  1  0
 17 40  1  0
 18 41  1  0
 19 42  1  0
 20 43  1  0
 22 44  1  0
 23 45  1  0
 24 46  1  0
 25 47  1  0
 26 48  1  0
 28 49  1  0
 29 50  1  0
 30 51  1  0
 30 52  1  0
 30 53  1  0
 44 54  1  0
 44 55  1  0
 44 56  1  0
M  CHG  1  14   1
M  END
