@<TRIPOS>MOLECULE
MOL
   56    59     1     0     0
SMALL
bcc


@<TRIPOS>ATOM
      1 C1          -7.6140     1.3780    -0.3820 ca         1 MOL      -0.036300
      2 C2          -6.4560     1.8490     0.2500 ca         1 MOL      -0.144500
      3 C3          -5.3800     0.9900     0.4900 ca         1 MOL      -0.079000
      4 C4          -5.4470    -0.3450     0.0770 ca         1 MOL      -0.185600
      5 C5          -4.3340    -1.2940     0.3210 c          1 MOL       0.587300
      6 C6          -2.9120    -0.8740     0.2250 ca         1 MOL      -0.160600
      7 C7          -2.4830     0.0830    -0.7030 ca         1 MOL      -0.061500
      8 C8          -1.1280     0.4180    -0.7820 ca         1 MOL      -0.164500
      9 C9          -0.1990    -0.2190     0.0430 ca         1 MOL       0.096100
     10 O1           1.1150     0.1780    -0.0810 os         1 MOL      -0.303200
     11 C10          2.0760    -0.8090    -0.0420 ca         1 MOL       0.081100
     12 C11          3.1590    -0.6520     0.8330 ca         1 MOL      -0.138300
     13 C12          3.2760     0.5360     1.7450 c3         1 MOL       0.086600
     14 N1           4.2350     1.4790     1.1650 na         1 MOL      -0.017100
     15 C13          4.0120     2.1840     0.0460 cc         1 MOL      -0.014600
     16 N2           5.1000     2.9350    -0.1840 na         1 MOL      -0.029100
     17 C14          5.2630     3.8340    -1.3180 c3         1 MOL      -0.001400
     18 C15          6.0420     2.6940     0.8020 cc         1 MOL      -0.127300
     19 C16          5.4940     1.7790     1.6570 cd         1 MOL      -0.120300
     20 C17          4.1680    -1.6300     0.8280 ca         1 MOL      -0.117000
     21 C18          4.1070    -2.7360    -0.0260 ca         1 MOL       0.127100
     22 O2           5.1620    -3.5960     0.0880 os         1 MOL      -0.317900
     23 C19          3.0300    -2.8670    -0.9000 ca         1 MOL      -0.150000
     24 C20          2.0200    -1.9010    -0.9150 ca         1 MOL      -0.119000
     25 C21         -0.6240    -1.1690     0.9760 ca         1 MOL      -0.164500
     26 C22         -1.9770    -1.5050     1.0560 ca         1 MOL      -0.061500
     27 O3          -4.5870    -2.4620     0.6050 o          1 MOL      -0.514100
     28 C23         -6.6040    -0.8220    -0.5470 ca         1 MOL      -0.079000
     29 C24         -7.6770     0.0390    -0.7860 ca         1 MOL      -0.144500
     30 C25         -8.7580     2.3080    -0.6630 c3         1 MOL      -0.065800
     31 H1          -6.3930     2.8870     0.5710 ha         1 MOL       0.142000
     32 H2          -4.5090     1.3730     1.0150 ha         1 MOL       0.143500
     33 H3          -3.1860     0.5560    -1.3840 ha         1 MOL       0.163500
     34 H4          -0.8020     1.1600    -1.5060 ha         1 MOL       0.146500
     35 H5           2.3240     1.0560     1.8900 h1         1 MOL       0.103200
     36 H6           3.6220     0.2220     2.7370 h1         1 MOL       0.103200
     37 H7           3.1170     2.1530    -0.5650 h5         1 MOL       0.275000
     38 H8           5.7270     4.7650    -0.9810 h1         1 MOL       0.092033
     39 H9           4.2860     4.0570    -1.7560 h1         1 MOL       0.092033
     40 H10          5.8980     3.3490    -2.0640 h1         1 MOL       0.092033
     41 H11          6.9870     3.2090     0.7660 h4         1 MOL       0.229000
     42 H12          5.8430     1.2950     2.5530 h4         1 MOL       0.228000
     43 H13          5.0230    -1.5420     1.4970 ha         1 MOL       0.160000
     44 C26          5.1080    -4.7910    -0.6850 c3         1 MOL       0.107700
     45 H14          2.9480    -3.7040    -1.5870 ha         1 MOL       0.163000
     46 H15          1.1940    -2.0100    -1.6150 ha         1 MOL       0.168000
     47 H16          0.0790    -1.6650     1.6390 ha         1 MOL       0.146500
     48 H17         -2.3050    -2.2640     1.7650 ha         1 MOL       0.163500
     49 H18         -6.6740    -1.8660    -0.8480 ha         1 MOL       0.143500
     50 H19         -8.5670    -0.3460    -1.2800 ha         1 MOL       0.142000
     51 H20         -8.8190     3.0940     0.0980 hc         1 MOL       0.054033
     52 H21         -9.7120     1.7700    -0.6500 hc         1 MOL       0.054033
     53 H22         -8.6280     2.7750    -1.6440 hc         1 MOL       0.054033
     54 H23          5.9940    -5.3850    -0.4450 h1         1 MOL       0.057700
     55 H24          5.1370    -4.5660    -1.7560 h1         1 MOL       0.057700
     56 H25          4.2260    -5.3870    -0.4300 h1         1 MOL       0.057700
@<TRIPOS>BOND
     1     1     2 ar  
     2     2     3 ar  
     3     3     4 ar  
     4     4     5 1   
     5     5     6 1   
     6     6     7 ar  
     7     7     8 ar  
     8     8     9 ar  
     9     9    10 1   
    10    10    11 1   
    11    11    12 ar  
    12    12    13 1   
    13    13    14 1   
    14    14    15 2   
    15    15    16 1   
    16    16    17 1   
    17    16    18 1   
    18    18    19 2   
    19    12    20 ar  
    20    20    21 ar  
    21    21    22 1   
    22    21    23 ar  
    23    23    24 ar  
    24     9    25 ar  
    25    25    26 ar  
    26     5    27 2   
    27     4    28 ar  
    28    28    29 ar  
    29    29     1 ar  
    30    26     6 ar  
    31    24    11 ar  
    32    19    14 1   
    33     1    30 1   
    34     2    31 1   
    35     3    32 1   
    36     7    33 1   
    37     8    34 1   
    38    13    35 1   
    39    13    36 1   
    40    15    37 1   
    41    17    38 1   
    42    17    39 1   
    43    17    40 1   
    44    18    41 1   
    45    19    42 1   
    46    20    43 1   
    47    22    44 1   
    48    23    45 1   
    49    24    46 1   
    50    25    47 1   
    51    26    48 1   
    52    28    49 1   
    53    29    50 1   
    54    30    51 1   
    55    30    52 1   
    56    30    53 1   
    57    44    54 1   
    58    44    55 1   
    59    44    56 1   
@<TRIPOS>SUBSTRUCTURE
     1 MOL         1 TEMP              0 ****  ****    0 ROOT
